version 3
run Default-0-20230408-17:49:10-12445
attr configname Default
attr datetime 20230408-17:49:10
attr datetimef 20230408-174910
attr experiment Default
attr inifile omnetpp_pva.ini
attr iterationvars ""
attr iterationvarsd ""
attr iterationvarsf ""
attr measurement ""
attr network PriorityV2VAttack
attr processid 12445
attr repetition 0
attr replication #0
attr resultdir results
attr runnumber 0
attr seedset 0
config image-path ../../../images
config cmdenv-express-mode true
config cmdenv-autoflush true
config cmdenv-status-frequency 1s
config **.cmdenv-log-level info
config image-path ../../../images
config network PriorityV2VAttack
config debug-on-errors true
config print-undisposed true
config sim-time-limit 200s
config **.scalar-recording true
config **.vector-recording true
config *.playgroundSizeX 2500m
config *.playgroundSizeY 2500m
config *.playgroundSizeZ 50m
config *.annotations.draw true
config *.obstacles.obstacles "xmldoc(\"config.xml\", \"//AnalogueModel[@type='SimpleObstacleShadowing']/obstacles\")"
config *.manager.updateInterval 1s
config *.manager.host "\"localhost\""
config *.manager.port 9999
config *.manager.autoShutdown true
config *.manager.launchConfig "xmldoc(\"erlangen.launchd.xml\")"
config *.connectionManager.sendDirect true
config *.connectionManager.maxInterfDist 2600m
config *.connectionManager.drawMaxIntfDist false
config *.**.nic.mac1609_4.useServiceChannel false
config *.**.nic.mac1609_4.txPower 20mW
config *.**.nic.mac1609_4.bitrate 6Mbps
config *.**.nic.phy80211p.minPowerLevel -110dBm
config *.**.nic.phy80211p.useNoiseFloor true
config *.**.nic.phy80211p.noiseFloor -98dBm
config *.**.nic.phy80211p.decider "xmldoc(\"config.xml\")"
config *.**.nic.phy80211p.analogueModels "xmldoc(\"config.xml\")"
config *.**.nic.phy80211p.usePropagationDelay true
config *.**.nic.phy80211p.antenna "xmldoc(\"antenna.xml\", \"/root/Antenna[@id='monopole']\")"
config *.node[*].nic.phy80211p.antennaOffsetY "0 m"
config *.node[*].nic.phy80211p.antennaOffsetZ "1.895 m"
config *.attacker[*].nic.phy80211p.antennaOffsetY "0 m"
config *.attacker[*].nic.phy80211p.antennaOffsetZ "1.895 m"
config *.manager.moduleType "\"vtype1=org.car2x.veins.nodes.Car *=org.car2x.veins.nodes.Car\""
config *.manager.moduleName "\"vtype1=attacker *=node\""
config *.node[*].applType "\"TraCIDemo11p\""
config *.node[*].appl.headerLength "80 bit"
config *.node[*].appl.sendBeacons false
config *.node[*].appl.dataOnSch false
config *.node[*].appl.beaconInterval 1s
config *.node[*].appl.dataUserPriority 1
config *.attacker[*].applType "\"TraCIV2Vp\""
config *.attacker[*].appl.headerLength "80 bit"
config *.attacker[*].appl.sendBeacons false
config *.attacker[*].appl.dataOnSch false
config *.attacker[*].appl.beaconInterval 1s
config *.attacker[*].appl.dataUserPriority 7
config *.node[*].veinsmobility.x 0
config *.node[*].veinsmobility.y 0
config *.node[*].veinsmobility.z 0
config *.node[*].veinsmobility.setHostSpeed false
config *.node[*0].veinsmobility.accidentCount 1
config *.node[*0].veinsmobility.accidentStart 73s
config *.node[*0].veinsmobility.accidentDuration 50s
config *.attacker[*].veinsmobility.x 0
config *.attacker[*].veinsmobility.y 0
config *.attacker[*].veinsmobility.z 0
config *.attacker[*].veinsmobility.setHostSpeed false

par PriorityV2VAttack.obstacles typename "\"org.car2x.veins.modules.obstacle.ObstacleControl\""
par PriorityV2VAttack.obstacles obstacles "<obstacles>...</obstacles> at /media/DATA/av_surv_veins/veins/examples/veins/PriorityV2VAttack//config.xml:40"
par PriorityV2VAttack.obstacles gridCellSize 250
par PriorityV2VAttack.annotations typename "\"org.car2x.veins.modules.world.annotations.AnnotationManager\""
par PriorityV2VAttack.annotations draw true
par PriorityV2VAttack.annotations annotations "<annotations/> at content:1"
par PriorityV2VAttack.connectionManager typename "\"org.car2x.veins.base.connectionManager.ConnectionManager\""
par PriorityV2VAttack.connectionManager sendDirect true
par PriorityV2VAttack.connectionManager maxInterfDist 2600m
attr unit m
par PriorityV2VAttack.connectionManager drawMaxIntfDist false
par PriorityV2VAttack.world typename "\"org.car2x.veins.base.modules.BaseWorldUtility\""
par PriorityV2VAttack.world playgroundSizeX 2500m
attr unit m
par PriorityV2VAttack.world playgroundSizeY 2500m
attr unit m
par PriorityV2VAttack.world playgroundSizeZ 50m
attr unit m
par PriorityV2VAttack.world useTorus false
par PriorityV2VAttack.world use2D false
par PriorityV2VAttack.manager typename "\"org.car2x.veins.modules.mobility.traci.TraCIScenarioManagerLaunchd\""
par PriorityV2VAttack.manager connectAt 0s
attr unit s
par PriorityV2VAttack.manager firstStepAt -1s
attr unit s
par PriorityV2VAttack.manager updateInterval 1s
attr unit s
par PriorityV2VAttack.manager moduleType "\"vtype1=org.car2x.veins.nodes.Car *=org.car2x.veins.nodes.Car\""
par PriorityV2VAttack.manager moduleName "\"vtype1=attacker *=node\""
par PriorityV2VAttack.manager moduleType2 "\"org.car2x.veins.nodes.Car\""
par PriorityV2VAttack.manager moduleName2 "\"attacker\""
par PriorityV2VAttack.manager moduleDisplayString "\"*='i=veins/node/car;is=vs'\""
par PriorityV2VAttack.manager trafficLightModuleType "\"\""
par PriorityV2VAttack.manager trafficLightModuleName "\"tls\""
par PriorityV2VAttack.manager trafficLightFilter "\"\""
par PriorityV2VAttack.manager trafficLightModuleDisplayString "\"i=misc/node2;is=vs;r=0,,#707070,1\""
par PriorityV2VAttack.manager host "\"localhost\""
par PriorityV2VAttack.manager port 9999
par PriorityV2VAttack.manager seed -1
par PriorityV2VAttack.manager autoShutdown true
par PriorityV2VAttack.manager margin 25
par PriorityV2VAttack.manager roiRoads "\"\""
par PriorityV2VAttack.manager roiRects "\"\""
par PriorityV2VAttack.manager penetrationRate 1
par PriorityV2VAttack.manager ignoreGuiCommands false
par PriorityV2VAttack.manager launchConfig "<launch>...</launch> at /media/DATA/av_surv_veins/veins/examples/veins/PriorityV2VAttack//erlangen.launchd.xml:35"
scalar PriorityV2VAttack.manager roiArea 0
par PriorityV2VAttack.roadsCanvasVisualizer typename "\"org.car2x.veins.visualizer.roads.RoadsCanvasVisualizer\""
par PriorityV2VAttack.roadsCanvasVisualizer enabled true
par PriorityV2VAttack.roadsCanvasVisualizer lineZIndex -1
par PriorityV2VAttack.roadsCanvasVisualizer lineColor "\"firebrick4\""
par PriorityV2VAttack.roadsCanvasVisualizer lineWidth 1
par PriorityV2VAttack.roadsCanvasVisualizer lineWidthZoom false
par PriorityV2VAttack.node[0].appl typename "\"org.car2x.veins.modules.application.traci.TraCIDemo11p\""
par PriorityV2VAttack.node[0].appl headerLength 80bit
attr unit bit
par PriorityV2VAttack.node[0].appl sendBeacons false
par PriorityV2VAttack.node[0].appl beaconLengthBits 256bit
attr unit bit
par PriorityV2VAttack.node[0].appl beaconUserPriority 7
par PriorityV2VAttack.node[0].appl beaconInterval 1s
attr unit s
par PriorityV2VAttack.node[0].appl dataLengthBits 1024bit
attr unit bit
par PriorityV2VAttack.node[0].appl dataOnSch false
par PriorityV2VAttack.node[0].appl dataUserPriority 1
par PriorityV2VAttack.node[0].appl avoidBeaconSynchronization true
par PriorityV2VAttack.node[0].appl sendWSA false
par PriorityV2VAttack.node[0].appl wsaLengthBits 250bit
attr unit bit
par PriorityV2VAttack.node[0].appl wsaInterval 1s
attr unit s
scalar PriorityV2VAttack.node[0].appl generatedWSMs 1
scalar PriorityV2VAttack.node[0].appl receivedWSMs 10004
scalar PriorityV2VAttack.node[0].appl generatedBSMs 0
scalar PriorityV2VAttack.node[0].appl receivedBSMs 0
scalar PriorityV2VAttack.node[0].appl generatedWSAs 0
scalar PriorityV2VAttack.node[0].appl receivedWSAs 0
par PriorityV2VAttack.node[0].nic.phy80211p typename "\"org.car2x.veins.modules.phy.PhyLayer80211p\""
par PriorityV2VAttack.node[0].nic.phy80211p recordStats false
par PriorityV2VAttack.node[0].nic.phy80211p usePropagationDelay true
par PriorityV2VAttack.node[0].nic.phy80211p noiseFloor -98dBm
attr unit dBm
par PriorityV2VAttack.node[0].nic.phy80211p useNoiseFloor true
par PriorityV2VAttack.node[0].nic.phy80211p antenna "<Antenna type=\"SampledAntenna1D\" id=\"monopole\">...</Antenna> at /media/DATA/av_surv_veins/veins/examples/veins/PriorityV2VAttack//antenna.xml:35"
par PriorityV2VAttack.node[0].nic.phy80211p antennaOffsetX 0m
attr unit m
par PriorityV2VAttack.node[0].nic.phy80211p antennaOffsetY 0m
attr unit m
par PriorityV2VAttack.node[0].nic.phy80211p antennaOffsetZ 1.895m
attr unit m
par PriorityV2VAttack.node[0].nic.phy80211p antennaOffsetYaw 0rad
attr unit rad
par PriorityV2VAttack.node[0].nic.phy80211p analogueModels "<root>...</root> at /media/DATA/av_surv_veins/veins/examples/veins/PriorityV2VAttack//config.xml:34"
par PriorityV2VAttack.node[0].nic.phy80211p decider "<root>...</root> at /media/DATA/av_surv_veins/veins/examples/veins/PriorityV2VAttack//config.xml:34"
par PriorityV2VAttack.node[0].nic.phy80211p minPowerLevel -110dBm
attr unit dBm
par PriorityV2VAttack.node[0].nic.phy80211p timeRXToTX 0s
attr unit s
par PriorityV2VAttack.node[0].nic.phy80211p timeRXToSleep 0s
attr unit s
par PriorityV2VAttack.node[0].nic.phy80211p timeTXToRX 0s
attr unit s
par PriorityV2VAttack.node[0].nic.phy80211p timeTXToSleep 0s
attr unit s
par PriorityV2VAttack.node[0].nic.phy80211p timeSleepToRX 0s
attr unit s
par PriorityV2VAttack.node[0].nic.phy80211p timeSleepToTX 0s
attr unit s
par PriorityV2VAttack.node[0].nic.phy80211p initialRadioState 0
par PriorityV2VAttack.node[0].nic.phy80211p radioMinAtt 1
par PriorityV2VAttack.node[0].nic.phy80211p radioMaxAtt 0
par PriorityV2VAttack.node[0].nic.phy80211p nbRadioChannels 1
par PriorityV2VAttack.node[0].nic.phy80211p initialRadioChannel 0
par PriorityV2VAttack.node[0].nic.phy80211p ccaThreshold -65dBm
attr unit dBm
par PriorityV2VAttack.node[0].nic.phy80211p collectCollisionStatistics false
par PriorityV2VAttack.node[0].nic.phy80211p allowTxDuringRx false
scalar PriorityV2VAttack.node[0].nic.phy80211p busyTime 0.01166295477387
par PriorityV2VAttack.node[0].nic.mac1609_4 typename "\"org.car2x.veins.modules.mac.ieee80211p.Mac1609_4\""
par PriorityV2VAttack.node[0].nic.mac1609_4 notAffectedByHostState false
par PriorityV2VAttack.node[0].nic.mac1609_4 headerLength 0bit
attr unit bit
par PriorityV2VAttack.node[0].nic.mac1609_4 address "\"auto\""
par PriorityV2VAttack.node[0].nic.mac1609_4 useServiceChannel false
par PriorityV2VAttack.node[0].nic.mac1609_4 serviceChannel 1
par PriorityV2VAttack.node[0].nic.mac1609_4 bitrate 6000000bps
attr unit bps
par PriorityV2VAttack.node[0].nic.mac1609_4 syncOffset 0.0003s
attr unit s
par PriorityV2VAttack.node[0].nic.mac1609_4 txPower 20mW
attr unit mW
par PriorityV2VAttack.node[0].nic.mac1609_4 queueSize 0
par PriorityV2VAttack.node[0].nic.mac1609_4 dot11RTSThreshold 12000bit
attr unit bit
par PriorityV2VAttack.node[0].nic.mac1609_4 dot11ShortRetryLimit 7
par PriorityV2VAttack.node[0].nic.mac1609_4 dot11LongRetryLimit 4
par PriorityV2VAttack.node[0].nic.mac1609_4 ackLength 112bit
attr unit bit
par PriorityV2VAttack.node[0].nic.mac1609_4 useAcks false
par PriorityV2VAttack.node[0].nic.mac1609_4 frameErrorRate 0
par PriorityV2VAttack.node[0].nic.mac1609_4 ackErrorRate 0
scalar PriorityV2VAttack.node[0].nic.mac1609_4 ReceivedUnicastPackets 0
scalar PriorityV2VAttack.node[0].nic.mac1609_4 ReceivedBroadcasts 10004
scalar PriorityV2VAttack.node[0].nic.mac1609_4 SentPackets 1
scalar PriorityV2VAttack.node[0].nic.mac1609_4 SentAcknowledgements 0
scalar PriorityV2VAttack.node[0].nic.mac1609_4 RetriesExceeded 0
scalar PriorityV2VAttack.node[0].nic.mac1609_4 SNIRLostPackets 0
scalar PriorityV2VAttack.node[0].nic.mac1609_4 RXTXLostPackets 0
scalar PriorityV2VAttack.node[0].nic.mac1609_4 TotalLostPackets 0
scalar PriorityV2VAttack.node[0].nic.mac1609_4 DroppedPacketsInMac 0
scalar PriorityV2VAttack.node[0].nic.mac1609_4 TooLittleTime 0
scalar PriorityV2VAttack.node[0].nic.mac1609_4 TimesIntoBackoff 1
scalar PriorityV2VAttack.node[0].nic.mac1609_4 SlotsBackoff 8
scalar PriorityV2VAttack.node[0].nic.mac1609_4 NumInternalContention 0
scalar PriorityV2VAttack.node[0].nic.mac1609_4 totalBusyTime 2.321161
scalar PriorityV2VAttack.node[0].nic.mac1609_4 retriesExceeded:count 0
attr recordingmode count
attr source org_car2x_veins_modules_mac_sigRetriesExceeded
scalar PriorityV2VAttack.node[0].nic.mac1609_4 sentAcks:count 0
attr recordingmode count
attr source org_car2x_veins_modules_mac_sigSentAck
scalar PriorityV2VAttack.node[0].nic.mac1609_4 sentPackets:count 1
attr recordingmode count
attr source org_car2x_veins_modules_mac_sigSentPacket
scalar PriorityV2VAttack.node[0].nic.mac1609_4 collisions:count 0
attr recordingmode count
attr source org_car2x_veins_modules_mac_sigCollision
scalar PriorityV2VAttack.node[0].nic.mac1609_4 channelBusy:timeavg 0.011664125628141
attr recordingmode timeavg
attr source org_car2x_veins_modules_mac_sigChannelBusy
par PriorityV2VAttack.node[0].nic typename "\"org.car2x.veins.modules.nic.Nic80211p\""
par PriorityV2VAttack.node[0].nic connectionManagerName "\"connectionManager\""
par PriorityV2VAttack.node[0].veinsmobility typename "\"org.car2x.veins.modules.mobility.traci.TraCIMobility\""
par PriorityV2VAttack.node[0].veinsmobility notAffectedByHostState true
par PriorityV2VAttack.node[0].veinsmobility x 0
par PriorityV2VAttack.node[0].veinsmobility y 0
par PriorityV2VAttack.node[0].veinsmobility z 0
par PriorityV2VAttack.node[0].veinsmobility xOrientation 1
par PriorityV2VAttack.node[0].veinsmobility yOrientation 0
par PriorityV2VAttack.node[0].veinsmobility zOrientation 0
par PriorityV2VAttack.node[0].veinsmobility hostPositionOffset 0m
attr unit m
par PriorityV2VAttack.node[0].veinsmobility setHostSpeed false
par PriorityV2VAttack.node[0].veinsmobility accidentCount 1
par PriorityV2VAttack.node[0].veinsmobility accidentStart 73s
attr unit s
par PriorityV2VAttack.node[0].veinsmobility accidentDuration 50s
attr unit s
par PriorityV2VAttack.node[0].veinsmobility accidentInterval "uniform(30s, 60s)"
attr unit s
scalar PriorityV2VAttack.node[0].veinsmobility startTime 1
scalar PriorityV2VAttack.node[0].veinsmobility totalTime 199
scalar PriorityV2VAttack.node[0].veinsmobility stopTime 200
scalar PriorityV2VAttack.node[0].veinsmobility minSpeed 0
scalar PriorityV2VAttack.node[0].veinsmobility maxSpeed 13.998502501769
scalar PriorityV2VAttack.node[0].veinsmobility totalDistance 1968.8124046302
scalar PriorityV2VAttack.node[0].veinsmobility totalCO2Emission 408.86566633457
par PriorityV2VAttack.node[0] typename "\"org.car2x.veins.nodes.Car\""
par PriorityV2VAttack.node[0] applType "\"TraCIDemo11p\""
par PriorityV2VAttack.node[0] nicType "\"Nic80211p\""
par PriorityV2VAttack.node[0] veinsmobilityType "\"org.car2x.veins.modules.mobility.traci.TraCIMobility\""
par PriorityV2VAttack.node[2].appl typename "\"org.car2x.veins.modules.application.traci.TraCIDemo11p\""
par PriorityV2VAttack.node[2].appl headerLength 80bit
attr unit bit
par PriorityV2VAttack.node[2].appl sendBeacons false
par PriorityV2VAttack.node[2].appl beaconLengthBits 256bit
attr unit bit
par PriorityV2VAttack.node[2].appl beaconUserPriority 7
par PriorityV2VAttack.node[2].appl beaconInterval 1s
attr unit s
par PriorityV2VAttack.node[2].appl dataLengthBits 1024bit
attr unit bit
par PriorityV2VAttack.node[2].appl dataOnSch false
par PriorityV2VAttack.node[2].appl dataUserPriority 1
par PriorityV2VAttack.node[2].appl avoidBeaconSynchronization true
par PriorityV2VAttack.node[2].appl sendWSA false
par PriorityV2VAttack.node[2].appl wsaLengthBits 250bit
attr unit bit
par PriorityV2VAttack.node[2].appl wsaInterval 1s
attr unit s
scalar PriorityV2VAttack.node[2].appl generatedWSMs 1
scalar PriorityV2VAttack.node[2].appl receivedWSMs 10004
scalar PriorityV2VAttack.node[2].appl generatedBSMs 0
scalar PriorityV2VAttack.node[2].appl receivedBSMs 0
scalar PriorityV2VAttack.node[2].appl generatedWSAs 0
scalar PriorityV2VAttack.node[2].appl receivedWSAs 0
par PriorityV2VAttack.node[2].nic.phy80211p typename "\"org.car2x.veins.modules.phy.PhyLayer80211p\""
par PriorityV2VAttack.node[2].nic.phy80211p recordStats false
par PriorityV2VAttack.node[2].nic.phy80211p usePropagationDelay true
par PriorityV2VAttack.node[2].nic.phy80211p noiseFloor -98dBm
attr unit dBm
par PriorityV2VAttack.node[2].nic.phy80211p useNoiseFloor true
par PriorityV2VAttack.node[2].nic.phy80211p antenna "<Antenna type=\"SampledAntenna1D\" id=\"monopole\">...</Antenna> at /media/DATA/av_surv_veins/veins/examples/veins/PriorityV2VAttack//antenna.xml:35"
par PriorityV2VAttack.node[2].nic.phy80211p antennaOffsetX 0m
attr unit m
par PriorityV2VAttack.node[2].nic.phy80211p antennaOffsetY 0m
attr unit m
par PriorityV2VAttack.node[2].nic.phy80211p antennaOffsetZ 1.895m
attr unit m
par PriorityV2VAttack.node[2].nic.phy80211p antennaOffsetYaw 0rad
attr unit rad
par PriorityV2VAttack.node[2].nic.phy80211p analogueModels "<root>...</root> at /media/DATA/av_surv_veins/veins/examples/veins/PriorityV2VAttack//config.xml:34"
par PriorityV2VAttack.node[2].nic.phy80211p decider "<root>...</root> at /media/DATA/av_surv_veins/veins/examples/veins/PriorityV2VAttack//config.xml:34"
par PriorityV2VAttack.node[2].nic.phy80211p minPowerLevel -110dBm
attr unit dBm
par PriorityV2VAttack.node[2].nic.phy80211p timeRXToTX 0s
attr unit s
par PriorityV2VAttack.node[2].nic.phy80211p timeRXToSleep 0s
attr unit s
par PriorityV2VAttack.node[2].nic.phy80211p timeTXToRX 0s
attr unit s
par PriorityV2VAttack.node[2].nic.phy80211p timeTXToSleep 0s
attr unit s
par PriorityV2VAttack.node[2].nic.phy80211p timeSleepToRX 0s
attr unit s
par PriorityV2VAttack.node[2].nic.phy80211p timeSleepToTX 0s
attr unit s
par PriorityV2VAttack.node[2].nic.phy80211p initialRadioState 0
par PriorityV2VAttack.node[2].nic.phy80211p radioMinAtt 1
par PriorityV2VAttack.node[2].nic.phy80211p radioMaxAtt 0
par PriorityV2VAttack.node[2].nic.phy80211p nbRadioChannels 1
par PriorityV2VAttack.node[2].nic.phy80211p initialRadioChannel 0
par PriorityV2VAttack.node[2].nic.phy80211p ccaThreshold -65dBm
attr unit dBm
par PriorityV2VAttack.node[2].nic.phy80211p collectCollisionStatistics false
par PriorityV2VAttack.node[2].nic.phy80211p allowTxDuringRx false
scalar PriorityV2VAttack.node[2].nic.phy80211p busyTime 0.011902194871795
par PriorityV2VAttack.node[2].nic.mac1609_4 typename "\"org.car2x.veins.modules.mac.ieee80211p.Mac1609_4\""
par PriorityV2VAttack.node[2].nic.mac1609_4 notAffectedByHostState false
par PriorityV2VAttack.node[2].nic.mac1609_4 headerLength 0bit
attr unit bit
par PriorityV2VAttack.node[2].nic.mac1609_4 address "\"auto\""
par PriorityV2VAttack.node[2].nic.mac1609_4 useServiceChannel false
par PriorityV2VAttack.node[2].nic.mac1609_4 serviceChannel 1
par PriorityV2VAttack.node[2].nic.mac1609_4 bitrate 6000000bps
attr unit bps
par PriorityV2VAttack.node[2].nic.mac1609_4 syncOffset 0.0003s
attr unit s
par PriorityV2VAttack.node[2].nic.mac1609_4 txPower 20mW
attr unit mW
par PriorityV2VAttack.node[2].nic.mac1609_4 queueSize 0
par PriorityV2VAttack.node[2].nic.mac1609_4 dot11RTSThreshold 12000bit
attr unit bit
par PriorityV2VAttack.node[2].nic.mac1609_4 dot11ShortRetryLimit 7
par PriorityV2VAttack.node[2].nic.mac1609_4 dot11LongRetryLimit 4
par PriorityV2VAttack.node[2].nic.mac1609_4 ackLength 112bit
attr unit bit
par PriorityV2VAttack.node[2].nic.mac1609_4 useAcks false
par PriorityV2VAttack.node[2].nic.mac1609_4 frameErrorRate 0
par PriorityV2VAttack.node[2].nic.mac1609_4 ackErrorRate 0
scalar PriorityV2VAttack.node[2].nic.mac1609_4 ReceivedUnicastPackets 0
scalar PriorityV2VAttack.node[2].nic.mac1609_4 ReceivedBroadcasts 10004
scalar PriorityV2VAttack.node[2].nic.mac1609_4 SentPackets 1
scalar PriorityV2VAttack.node[2].nic.mac1609_4 SentAcknowledgements 0
scalar PriorityV2VAttack.node[2].nic.mac1609_4 RetriesExceeded 0
scalar PriorityV2VAttack.node[2].nic.mac1609_4 SNIRLostPackets 0
scalar PriorityV2VAttack.node[2].nic.mac1609_4 RXTXLostPackets 0
scalar PriorityV2VAttack.node[2].nic.mac1609_4 TotalLostPackets 0
scalar PriorityV2VAttack.node[2].nic.mac1609_4 DroppedPacketsInMac 0
scalar PriorityV2VAttack.node[2].nic.mac1609_4 TooLittleTime 0
scalar PriorityV2VAttack.node[2].nic.mac1609_4 TimesIntoBackoff 1
scalar PriorityV2VAttack.node[2].nic.mac1609_4 SlotsBackoff 2
scalar PriorityV2VAttack.node[2].nic.mac1609_4 NumInternalContention 0
scalar PriorityV2VAttack.node[2].nic.mac1609_4 totalBusyTime 2.321161
scalar PriorityV2VAttack.node[2].nic.mac1609_4 retriesExceeded:count 0
attr recordingmode count
attr source org_car2x_veins_modules_mac_sigRetriesExceeded
scalar PriorityV2VAttack.node[2].nic.mac1609_4 sentAcks:count 0
attr recordingmode count
attr source org_car2x_veins_modules_mac_sigSentAck
scalar PriorityV2VAttack.node[2].nic.mac1609_4 sentPackets:count 1
attr recordingmode count
attr source org_car2x_veins_modules_mac_sigSentPacket
scalar PriorityV2VAttack.node[2].nic.mac1609_4 collisions:count 0
attr recordingmode count
attr source org_car2x_veins_modules_mac_sigCollision
scalar PriorityV2VAttack.node[2].nic.mac1609_4 channelBusy:timeavg 0.01190338974359
attr recordingmode timeavg
attr source org_car2x_veins_modules_mac_sigChannelBusy
par PriorityV2VAttack.node[2].nic typename "\"org.car2x.veins.modules.nic.Nic80211p\""
par PriorityV2VAttack.node[2].nic connectionManagerName "\"connectionManager\""
par PriorityV2VAttack.node[2].veinsmobility typename "\"org.car2x.veins.modules.mobility.traci.TraCIMobility\""
par PriorityV2VAttack.node[2].veinsmobility notAffectedByHostState true
par PriorityV2VAttack.node[2].veinsmobility x 0
par PriorityV2VAttack.node[2].veinsmobility y 0
par PriorityV2VAttack.node[2].veinsmobility z 0
par PriorityV2VAttack.node[2].veinsmobility xOrientation 1
par PriorityV2VAttack.node[2].veinsmobility yOrientation 0
par PriorityV2VAttack.node[2].veinsmobility zOrientation 0
par PriorityV2VAttack.node[2].veinsmobility hostPositionOffset 0m
attr unit m
par PriorityV2VAttack.node[2].veinsmobility setHostSpeed false
par PriorityV2VAttack.node[2].veinsmobility accidentCount 0
par PriorityV2VAttack.node[2].veinsmobility accidentStart 48.7069s
attr unit s
par PriorityV2VAttack.node[2].veinsmobility accidentDuration "uniform(30s, 60s)"
attr unit s
par PriorityV2VAttack.node[2].veinsmobility accidentInterval "uniform(30s, 60s)"
attr unit s
scalar PriorityV2VAttack.node[2].veinsmobility startTime 5
scalar PriorityV2VAttack.node[2].veinsmobility totalTime 195
scalar PriorityV2VAttack.node[2].veinsmobility stopTime 200
scalar PriorityV2VAttack.node[2].veinsmobility minSpeed 0
scalar PriorityV2VAttack.node[2].veinsmobility maxSpeed 13.999889892975
scalar PriorityV2VAttack.node[2].veinsmobility totalDistance 1939.6556879653
scalar PriorityV2VAttack.node[2].veinsmobility totalCO2Emission 402.25437315846
par PriorityV2VAttack.node[2] typename "\"org.car2x.veins.nodes.Car\""
par PriorityV2VAttack.node[2] applType "\"TraCIDemo11p\""
par PriorityV2VAttack.node[2] nicType "\"Nic80211p\""
par PriorityV2VAttack.node[2] veinsmobilityType "\"org.car2x.veins.modules.mobility.traci.TraCIMobility\""
par PriorityV2VAttack.node[3].appl typename "\"org.car2x.veins.modules.application.traci.TraCIDemo11p\""
par PriorityV2VAttack.node[3].appl headerLength 80bit
attr unit bit
par PriorityV2VAttack.node[3].appl sendBeacons false
par PriorityV2VAttack.node[3].appl beaconLengthBits 256bit
attr unit bit
par PriorityV2VAttack.node[3].appl beaconUserPriority 7
par PriorityV2VAttack.node[3].appl beaconInterval 1s
attr unit s
par PriorityV2VAttack.node[3].appl dataLengthBits 1024bit
attr unit bit
par PriorityV2VAttack.node[3].appl dataOnSch false
par PriorityV2VAttack.node[3].appl dataUserPriority 1
par PriorityV2VAttack.node[3].appl avoidBeaconSynchronization true
par PriorityV2VAttack.node[3].appl sendWSA false
par PriorityV2VAttack.node[3].appl wsaLengthBits 250bit
attr unit bit
par PriorityV2VAttack.node[3].appl wsaInterval 1s
attr unit s
scalar PriorityV2VAttack.node[3].appl generatedWSMs 1
scalar PriorityV2VAttack.node[3].appl receivedWSMs 10004
scalar PriorityV2VAttack.node[3].appl generatedBSMs 0
scalar PriorityV2VAttack.node[3].appl receivedBSMs 0
scalar PriorityV2VAttack.node[3].appl generatedWSAs 0
scalar PriorityV2VAttack.node[3].appl receivedWSAs 0
par PriorityV2VAttack.node[3].nic.phy80211p typename "\"org.car2x.veins.modules.phy.PhyLayer80211p\""
par PriorityV2VAttack.node[3].nic.phy80211p recordStats false
par PriorityV2VAttack.node[3].nic.phy80211p usePropagationDelay true
par PriorityV2VAttack.node[3].nic.phy80211p noiseFloor -98dBm
attr unit dBm
par PriorityV2VAttack.node[3].nic.phy80211p useNoiseFloor true
par PriorityV2VAttack.node[3].nic.phy80211p antenna "<Antenna type=\"SampledAntenna1D\" id=\"monopole\">...</Antenna> at /media/DATA/av_surv_veins/veins/examples/veins/PriorityV2VAttack//antenna.xml:35"
par PriorityV2VAttack.node[3].nic.phy80211p antennaOffsetX 0m
attr unit m
par PriorityV2VAttack.node[3].nic.phy80211p antennaOffsetY 0m
attr unit m
par PriorityV2VAttack.node[3].nic.phy80211p antennaOffsetZ 1.895m
attr unit m
par PriorityV2VAttack.node[3].nic.phy80211p antennaOffsetYaw 0rad
attr unit rad
par PriorityV2VAttack.node[3].nic.phy80211p analogueModels "<root>...</root> at /media/DATA/av_surv_veins/veins/examples/veins/PriorityV2VAttack//config.xml:34"
par PriorityV2VAttack.node[3].nic.phy80211p decider "<root>...</root> at /media/DATA/av_surv_veins/veins/examples/veins/PriorityV2VAttack//config.xml:34"
par PriorityV2VAttack.node[3].nic.phy80211p minPowerLevel -110dBm
attr unit dBm
par PriorityV2VAttack.node[3].nic.phy80211p timeRXToTX 0s
attr unit s
par PriorityV2VAttack.node[3].nic.phy80211p timeRXToSleep 0s
attr unit s
par PriorityV2VAttack.node[3].nic.phy80211p timeTXToRX 0s
attr unit s
par PriorityV2VAttack.node[3].nic.phy80211p timeTXToSleep 0s
attr unit s
par PriorityV2VAttack.node[3].nic.phy80211p timeSleepToRX 0s
attr unit s
par PriorityV2VAttack.node[3].nic.phy80211p timeSleepToTX 0s
attr unit s
par PriorityV2VAttack.node[3].nic.phy80211p initialRadioState 0
par PriorityV2VAttack.node[3].nic.phy80211p radioMinAtt 1
par PriorityV2VAttack.node[3].nic.phy80211p radioMaxAtt 0
par PriorityV2VAttack.node[3].nic.phy80211p nbRadioChannels 1
par PriorityV2VAttack.node[3].nic.phy80211p initialRadioChannel 0
par PriorityV2VAttack.node[3].nic.phy80211p ccaThreshold -65dBm
attr unit dBm
par PriorityV2VAttack.node[3].nic.phy80211p collectCollisionStatistics false
par PriorityV2VAttack.node[3].nic.phy80211p allowTxDuringRx false
scalar PriorityV2VAttack.node[3].nic.phy80211p busyTime 0.012025533678757
par PriorityV2VAttack.node[3].nic.mac1609_4 typename "\"org.car2x.veins.modules.mac.ieee80211p.Mac1609_4\""
par PriorityV2VAttack.node[3].nic.mac1609_4 notAffectedByHostState false
par PriorityV2VAttack.node[3].nic.mac1609_4 headerLength 0bit
attr unit bit
par PriorityV2VAttack.node[3].nic.mac1609_4 address "\"auto\""
par PriorityV2VAttack.node[3].nic.mac1609_4 useServiceChannel false
par PriorityV2VAttack.node[3].nic.mac1609_4 serviceChannel 1
par PriorityV2VAttack.node[3].nic.mac1609_4 bitrate 6000000bps
attr unit bps
par PriorityV2VAttack.node[3].nic.mac1609_4 syncOffset 0.0003s
attr unit s
par PriorityV2VAttack.node[3].nic.mac1609_4 txPower 20mW
attr unit mW
par PriorityV2VAttack.node[3].nic.mac1609_4 queueSize 0
par PriorityV2VAttack.node[3].nic.mac1609_4 dot11RTSThreshold 12000bit
attr unit bit
par PriorityV2VAttack.node[3].nic.mac1609_4 dot11ShortRetryLimit 7
par PriorityV2VAttack.node[3].nic.mac1609_4 dot11LongRetryLimit 4
par PriorityV2VAttack.node[3].nic.mac1609_4 ackLength 112bit
attr unit bit
par PriorityV2VAttack.node[3].nic.mac1609_4 useAcks false
par PriorityV2VAttack.node[3].nic.mac1609_4 frameErrorRate 0
par PriorityV2VAttack.node[3].nic.mac1609_4 ackErrorRate 0
scalar PriorityV2VAttack.node[3].nic.mac1609_4 ReceivedUnicastPackets 0
scalar PriorityV2VAttack.node[3].nic.mac1609_4 ReceivedBroadcasts 10004
scalar PriorityV2VAttack.node[3].nic.mac1609_4 SentPackets 1
scalar PriorityV2VAttack.node[3].nic.mac1609_4 SentAcknowledgements 0
scalar PriorityV2VAttack.node[3].nic.mac1609_4 RetriesExceeded 0
scalar PriorityV2VAttack.node[3].nic.mac1609_4 SNIRLostPackets 0
scalar PriorityV2VAttack.node[3].nic.mac1609_4 RXTXLostPackets 0
scalar PriorityV2VAttack.node[3].nic.mac1609_4 TotalLostPackets 0
scalar PriorityV2VAttack.node[3].nic.mac1609_4 DroppedPacketsInMac 0
scalar PriorityV2VAttack.node[3].nic.mac1609_4 TooLittleTime 0
scalar PriorityV2VAttack.node[3].nic.mac1609_4 TimesIntoBackoff 1
scalar PriorityV2VAttack.node[3].nic.mac1609_4 SlotsBackoff 11
scalar PriorityV2VAttack.node[3].nic.mac1609_4 NumInternalContention 0
scalar PriorityV2VAttack.node[3].nic.mac1609_4 totalBusyTime 2.321161
scalar PriorityV2VAttack.node[3].nic.mac1609_4 retriesExceeded:count 0
attr recordingmode count
attr source org_car2x_veins_modules_mac_sigRetriesExceeded
scalar PriorityV2VAttack.node[3].nic.mac1609_4 sentAcks:count 0
attr recordingmode count
attr source org_car2x_veins_modules_mac_sigSentAck
scalar PriorityV2VAttack.node[3].nic.mac1609_4 sentPackets:count 1
attr recordingmode count
attr source org_car2x_veins_modules_mac_sigSentPacket
scalar PriorityV2VAttack.node[3].nic.mac1609_4 collisions:count 0
attr recordingmode count
attr source org_car2x_veins_modules_mac_sigCollision
scalar PriorityV2VAttack.node[3].nic.mac1609_4 channelBusy:timeavg 0.012026740932643
attr recordingmode timeavg
attr source org_car2x_veins_modules_mac_sigChannelBusy
par PriorityV2VAttack.node[3].nic typename "\"org.car2x.veins.modules.nic.Nic80211p\""
par PriorityV2VAttack.node[3].nic connectionManagerName "\"connectionManager\""
par PriorityV2VAttack.node[3].veinsmobility typename "\"org.car2x.veins.modules.mobility.traci.TraCIMobility\""
par PriorityV2VAttack.node[3].veinsmobility notAffectedByHostState true
par PriorityV2VAttack.node[3].veinsmobility x 0
par PriorityV2VAttack.node[3].veinsmobility y 0
par PriorityV2VAttack.node[3].veinsmobility z 0
par PriorityV2VAttack.node[3].veinsmobility xOrientation 1
par PriorityV2VAttack.node[3].veinsmobility yOrientation 0
par PriorityV2VAttack.node[3].veinsmobility zOrientation 0
par PriorityV2VAttack.node[3].veinsmobility hostPositionOffset 0m
attr unit m
par PriorityV2VAttack.node[3].veinsmobility setHostSpeed false
par PriorityV2VAttack.node[3].veinsmobility accidentCount 0
par PriorityV2VAttack.node[3].veinsmobility accidentStart 56.7532s
attr unit s
par PriorityV2VAttack.node[3].veinsmobility accidentDuration "uniform(30s, 60s)"
attr unit s
par PriorityV2VAttack.node[3].veinsmobility accidentInterval "uniform(30s, 60s)"
attr unit s
scalar PriorityV2VAttack.node[3].veinsmobility startTime 7
scalar PriorityV2VAttack.node[3].veinsmobility totalTime 193
scalar PriorityV2VAttack.node[3].veinsmobility stopTime 200
scalar PriorityV2VAttack.node[3].veinsmobility minSpeed 0
scalar PriorityV2VAttack.node[3].veinsmobility maxSpeed 13.999773463665
scalar PriorityV2VAttack.node[3].veinsmobility totalDistance 1924.62960244
scalar PriorityV2VAttack.node[3].veinsmobility totalCO2Emission 399.61463707553
par PriorityV2VAttack.node[3] typename "\"org.car2x.veins.nodes.Car\""
par PriorityV2VAttack.node[3] applType "\"TraCIDemo11p\""
par PriorityV2VAttack.node[3] nicType "\"Nic80211p\""
par PriorityV2VAttack.node[3] veinsmobilityType "\"org.car2x.veins.modules.mobility.traci.TraCIMobility\""
par PriorityV2VAttack.node[4].appl typename "\"org.car2x.veins.modules.application.traci.TraCIDemo11p\""
par PriorityV2VAttack.node[4].appl headerLength 80bit
attr unit bit
par PriorityV2VAttack.node[4].appl sendBeacons false
par PriorityV2VAttack.node[4].appl beaconLengthBits 256bit
attr unit bit
par PriorityV2VAttack.node[4].appl beaconUserPriority 7
par PriorityV2VAttack.node[4].appl beaconInterval 1s
attr unit s
par PriorityV2VAttack.node[4].appl dataLengthBits 1024bit
attr unit bit
par PriorityV2VAttack.node[4].appl dataOnSch false
par PriorityV2VAttack.node[4].appl dataUserPriority 1
par PriorityV2VAttack.node[4].appl avoidBeaconSynchronization true
par PriorityV2VAttack.node[4].appl sendWSA false
par PriorityV2VAttack.node[4].appl wsaLengthBits 250bit
attr unit bit
par PriorityV2VAttack.node[4].appl wsaInterval 1s
attr unit s
scalar PriorityV2VAttack.node[4].appl generatedWSMs 1
scalar PriorityV2VAttack.node[4].appl receivedWSMs 10004
scalar PriorityV2VAttack.node[4].appl generatedBSMs 0
scalar PriorityV2VAttack.node[4].appl receivedBSMs 0
scalar PriorityV2VAttack.node[4].appl generatedWSAs 0
scalar PriorityV2VAttack.node[4].appl receivedWSAs 0
par PriorityV2VAttack.node[4].nic.phy80211p typename "\"org.car2x.veins.modules.phy.PhyLayer80211p\""
par PriorityV2VAttack.node[4].nic.phy80211p recordStats false
par PriorityV2VAttack.node[4].nic.phy80211p usePropagationDelay true
par PriorityV2VAttack.node[4].nic.phy80211p noiseFloor -98dBm
attr unit dBm
par PriorityV2VAttack.node[4].nic.phy80211p useNoiseFloor true
par PriorityV2VAttack.node[4].nic.phy80211p antenna "<Antenna type=\"SampledAntenna1D\" id=\"monopole\">...</Antenna> at /media/DATA/av_surv_veins/veins/examples/veins/PriorityV2VAttack//antenna.xml:35"
par PriorityV2VAttack.node[4].nic.phy80211p antennaOffsetX 0m
attr unit m
par PriorityV2VAttack.node[4].nic.phy80211p antennaOffsetY 0m
attr unit m
par PriorityV2VAttack.node[4].nic.phy80211p antennaOffsetZ 1.895m
attr unit m
par PriorityV2VAttack.node[4].nic.phy80211p antennaOffsetYaw 0rad
attr unit rad
par PriorityV2VAttack.node[4].nic.phy80211p analogueModels "<root>...</root> at /media/DATA/av_surv_veins/veins/examples/veins/PriorityV2VAttack//config.xml:34"
par PriorityV2VAttack.node[4].nic.phy80211p decider "<root>...</root> at /media/DATA/av_surv_veins/veins/examples/veins/PriorityV2VAttack//config.xml:34"
par PriorityV2VAttack.node[4].nic.phy80211p minPowerLevel -110dBm
attr unit dBm
par PriorityV2VAttack.node[4].nic.phy80211p timeRXToTX 0s
attr unit s
par PriorityV2VAttack.node[4].nic.phy80211p timeRXToSleep 0s
attr unit s
par PriorityV2VAttack.node[4].nic.phy80211p timeTXToRX 0s
attr unit s
par PriorityV2VAttack.node[4].nic.phy80211p timeTXToSleep 0s
attr unit s
par PriorityV2VAttack.node[4].nic.phy80211p timeSleepToRX 0s
attr unit s
par PriorityV2VAttack.node[4].nic.phy80211p timeSleepToTX 0s
attr unit s
par PriorityV2VAttack.node[4].nic.phy80211p initialRadioState 0
par PriorityV2VAttack.node[4].nic.phy80211p radioMinAtt 1
par PriorityV2VAttack.node[4].nic.phy80211p radioMaxAtt 0
par PriorityV2VAttack.node[4].nic.phy80211p nbRadioChannels 1
par PriorityV2VAttack.node[4].nic.phy80211p initialRadioChannel 0
par PriorityV2VAttack.node[4].nic.phy80211p ccaThreshold -65dBm
attr unit dBm
par PriorityV2VAttack.node[4].nic.phy80211p collectCollisionStatistics false
par PriorityV2VAttack.node[4].nic.phy80211p allowTxDuringRx false
scalar PriorityV2VAttack.node[4].nic.phy80211p busyTime 0.012215410526316
par PriorityV2VAttack.node[4].nic.mac1609_4 typename "\"org.car2x.veins.modules.mac.ieee80211p.Mac1609_4\""
par PriorityV2VAttack.node[4].nic.mac1609_4 notAffectedByHostState false
par PriorityV2VAttack.node[4].nic.mac1609_4 headerLength 0bit
attr unit bit
par PriorityV2VAttack.node[4].nic.mac1609_4 address "\"auto\""
par PriorityV2VAttack.node[4].nic.mac1609_4 useServiceChannel false
par PriorityV2VAttack.node[4].nic.mac1609_4 serviceChannel 1
par PriorityV2VAttack.node[4].nic.mac1609_4 bitrate 6000000bps
attr unit bps
par PriorityV2VAttack.node[4].nic.mac1609_4 syncOffset 0.0003s
attr unit s
par PriorityV2VAttack.node[4].nic.mac1609_4 txPower 20mW
attr unit mW
par PriorityV2VAttack.node[4].nic.mac1609_4 queueSize 0
par PriorityV2VAttack.node[4].nic.mac1609_4 dot11RTSThreshold 12000bit
attr unit bit
par PriorityV2VAttack.node[4].nic.mac1609_4 dot11ShortRetryLimit 7
par PriorityV2VAttack.node[4].nic.mac1609_4 dot11LongRetryLimit 4
par PriorityV2VAttack.node[4].nic.mac1609_4 ackLength 112bit
attr unit bit
par PriorityV2VAttack.node[4].nic.mac1609_4 useAcks false
par PriorityV2VAttack.node[4].nic.mac1609_4 frameErrorRate 0
par PriorityV2VAttack.node[4].nic.mac1609_4 ackErrorRate 0
scalar PriorityV2VAttack.node[4].nic.mac1609_4 ReceivedUnicastPackets 0
scalar PriorityV2VAttack.node[4].nic.mac1609_4 ReceivedBroadcasts 10004
scalar PriorityV2VAttack.node[4].nic.mac1609_4 SentPackets 1
scalar PriorityV2VAttack.node[4].nic.mac1609_4 SentAcknowledgements 0
scalar PriorityV2VAttack.node[4].nic.mac1609_4 RetriesExceeded 0
scalar PriorityV2VAttack.node[4].nic.mac1609_4 SNIRLostPackets 0
scalar PriorityV2VAttack.node[4].nic.mac1609_4 RXTXLostPackets 0
scalar PriorityV2VAttack.node[4].nic.mac1609_4 TotalLostPackets 0
scalar PriorityV2VAttack.node[4].nic.mac1609_4 DroppedPacketsInMac 0
scalar PriorityV2VAttack.node[4].nic.mac1609_4 TooLittleTime 0
scalar PriorityV2VAttack.node[4].nic.mac1609_4 TimesIntoBackoff 1
scalar PriorityV2VAttack.node[4].nic.mac1609_4 SlotsBackoff 6
scalar PriorityV2VAttack.node[4].nic.mac1609_4 NumInternalContention 0
scalar PriorityV2VAttack.node[4].nic.mac1609_4 totalBusyTime 2.321161
scalar PriorityV2VAttack.node[4].nic.mac1609_4 retriesExceeded:count 0
attr recordingmode count
attr source org_car2x_veins_modules_mac_sigRetriesExceeded
scalar PriorityV2VAttack.node[4].nic.mac1609_4 sentAcks:count 0
attr recordingmode count
attr source org_car2x_veins_modules_mac_sigSentAck
scalar PriorityV2VAttack.node[4].nic.mac1609_4 sentPackets:count 1
attr recordingmode count
attr source org_car2x_veins_modules_mac_sigSentPacket
scalar PriorityV2VAttack.node[4].nic.mac1609_4 collisions:count 0
attr recordingmode count
attr source org_car2x_veins_modules_mac_sigCollision
scalar PriorityV2VAttack.node[4].nic.mac1609_4 channelBusy:timeavg 0.012216636842106
attr recordingmode timeavg
attr source org_car2x_veins_modules_mac_sigChannelBusy
par PriorityV2VAttack.node[4].nic typename "\"org.car2x.veins.modules.nic.Nic80211p\""
par PriorityV2VAttack.node[4].nic connectionManagerName "\"connectionManager\""
par PriorityV2VAttack.node[4].veinsmobility typename "\"org.car2x.veins.modules.mobility.traci.TraCIMobility\""
par PriorityV2VAttack.node[4].veinsmobility notAffectedByHostState true
par PriorityV2VAttack.node[4].veinsmobility x 0
par PriorityV2VAttack.node[4].veinsmobility y 0
par PriorityV2VAttack.node[4].veinsmobility z 0
par PriorityV2VAttack.node[4].veinsmobility xOrientation 1
par PriorityV2VAttack.node[4].veinsmobility yOrientation 0
par PriorityV2VAttack.node[4].veinsmobility zOrientation 0
par PriorityV2VAttack.node[4].veinsmobility hostPositionOffset 0m
attr unit m
par PriorityV2VAttack.node[4].veinsmobility setHostSpeed false
par PriorityV2VAttack.node[4].veinsmobility accidentCount 0
par PriorityV2VAttack.node[4].veinsmobility accidentStart 44.33s
attr unit s
par PriorityV2VAttack.node[4].veinsmobility accidentDuration "uniform(30s, 60s)"
attr unit s
par PriorityV2VAttack.node[4].veinsmobility accidentInterval "uniform(30s, 60s)"
attr unit s
scalar PriorityV2VAttack.node[4].veinsmobility startTime 10
scalar PriorityV2VAttack.node[4].veinsmobility totalTime 190
scalar PriorityV2VAttack.node[4].veinsmobility stopTime 200
scalar PriorityV2VAttack.node[4].veinsmobility minSpeed 0
scalar PriorityV2VAttack.node[4].veinsmobility maxSpeed 13.999527041174
scalar PriorityV2VAttack.node[4].veinsmobility totalDistance 1905.5709536582
scalar PriorityV2VAttack.node[4].veinsmobility totalCO2Emission 388.05432373717
par PriorityV2VAttack.node[4] typename "\"org.car2x.veins.nodes.Car\""
par PriorityV2VAttack.node[4] applType "\"TraCIDemo11p\""
par PriorityV2VAttack.node[4] nicType "\"Nic80211p\""
par PriorityV2VAttack.node[4] veinsmobilityType "\"org.car2x.veins.modules.mobility.traci.TraCIMobility\""
par PriorityV2VAttack.node[5].appl typename "\"org.car2x.veins.modules.application.traci.TraCIDemo11p\""
par PriorityV2VAttack.node[5].appl headerLength 80bit
attr unit bit
par PriorityV2VAttack.node[5].appl sendBeacons false
par PriorityV2VAttack.node[5].appl beaconLengthBits 256bit
attr unit bit
par PriorityV2VAttack.node[5].appl beaconUserPriority 7
par PriorityV2VAttack.node[5].appl beaconInterval 1s
attr unit s
par PriorityV2VAttack.node[5].appl dataLengthBits 1024bit
attr unit bit
par PriorityV2VAttack.node[5].appl dataOnSch false
par PriorityV2VAttack.node[5].appl dataUserPriority 1
par PriorityV2VAttack.node[5].appl avoidBeaconSynchronization true
par PriorityV2VAttack.node[5].appl sendWSA false
par PriorityV2VAttack.node[5].appl wsaLengthBits 250bit
attr unit bit
par PriorityV2VAttack.node[5].appl wsaInterval 1s
attr unit s
scalar PriorityV2VAttack.node[5].appl generatedWSMs 1
scalar PriorityV2VAttack.node[5].appl receivedWSMs 10004
scalar PriorityV2VAttack.node[5].appl generatedBSMs 0
scalar PriorityV2VAttack.node[5].appl receivedBSMs 0
scalar PriorityV2VAttack.node[5].appl generatedWSAs 0
scalar PriorityV2VAttack.node[5].appl receivedWSAs 0
par PriorityV2VAttack.node[5].nic.phy80211p typename "\"org.car2x.veins.modules.phy.PhyLayer80211p\""
par PriorityV2VAttack.node[5].nic.phy80211p recordStats false
par PriorityV2VAttack.node[5].nic.phy80211p usePropagationDelay true
par PriorityV2VAttack.node[5].nic.phy80211p noiseFloor -98dBm
attr unit dBm
par PriorityV2VAttack.node[5].nic.phy80211p useNoiseFloor true
par PriorityV2VAttack.node[5].nic.phy80211p antenna "<Antenna type=\"SampledAntenna1D\" id=\"monopole\">...</Antenna> at /media/DATA/av_surv_veins/veins/examples/veins/PriorityV2VAttack//antenna.xml:35"
par PriorityV2VAttack.node[5].nic.phy80211p antennaOffsetX 0m
attr unit m
par PriorityV2VAttack.node[5].nic.phy80211p antennaOffsetY 0m
attr unit m
par PriorityV2VAttack.node[5].nic.phy80211p antennaOffsetZ 1.895m
attr unit m
par PriorityV2VAttack.node[5].nic.phy80211p antennaOffsetYaw 0rad
attr unit rad
par PriorityV2VAttack.node[5].nic.phy80211p analogueModels "<root>...</root> at /media/DATA/av_surv_veins/veins/examples/veins/PriorityV2VAttack//config.xml:34"
par PriorityV2VAttack.node[5].nic.phy80211p decider "<root>...</root> at /media/DATA/av_surv_veins/veins/examples/veins/PriorityV2VAttack//config.xml:34"
par PriorityV2VAttack.node[5].nic.phy80211p minPowerLevel -110dBm
attr unit dBm
par PriorityV2VAttack.node[5].nic.phy80211p timeRXToTX 0s
attr unit s
par PriorityV2VAttack.node[5].nic.phy80211p timeRXToSleep 0s
attr unit s
par PriorityV2VAttack.node[5].nic.phy80211p timeTXToRX 0s
attr unit s
par PriorityV2VAttack.node[5].nic.phy80211p timeTXToSleep 0s
attr unit s
par PriorityV2VAttack.node[5].nic.phy80211p timeSleepToRX 0s
attr unit s
par PriorityV2VAttack.node[5].nic.phy80211p timeSleepToTX 0s
attr unit s
par PriorityV2VAttack.node[5].nic.phy80211p initialRadioState 0
par PriorityV2VAttack.node[5].nic.phy80211p radioMinAtt 1
par PriorityV2VAttack.node[5].nic.phy80211p radioMaxAtt 0
par PriorityV2VAttack.node[5].nic.phy80211p nbRadioChannels 1
par PriorityV2VAttack.node[5].nic.phy80211p initialRadioChannel 0
par PriorityV2VAttack.node[5].nic.phy80211p ccaThreshold -65dBm
attr unit dBm
par PriorityV2VAttack.node[5].nic.phy80211p collectCollisionStatistics false
par PriorityV2VAttack.node[5].nic.phy80211p allowTxDuringRx false
scalar PriorityV2VAttack.node[5].nic.phy80211p busyTime 0.012411379679145
par PriorityV2VAttack.node[5].nic.mac1609_4 typename "\"org.car2x.veins.modules.mac.ieee80211p.Mac1609_4\""
par PriorityV2VAttack.node[5].nic.mac1609_4 notAffectedByHostState false
par PriorityV2VAttack.node[5].nic.mac1609_4 headerLength 0bit
attr unit bit
par PriorityV2VAttack.node[5].nic.mac1609_4 address "\"auto\""
par PriorityV2VAttack.node[5].nic.mac1609_4 useServiceChannel false
par PriorityV2VAttack.node[5].nic.mac1609_4 serviceChannel 1
par PriorityV2VAttack.node[5].nic.mac1609_4 bitrate 6000000bps
attr unit bps
par PriorityV2VAttack.node[5].nic.mac1609_4 syncOffset 0.0003s
attr unit s
par PriorityV2VAttack.node[5].nic.mac1609_4 txPower 20mW
attr unit mW
par PriorityV2VAttack.node[5].nic.mac1609_4 queueSize 0
par PriorityV2VAttack.node[5].nic.mac1609_4 dot11RTSThreshold 12000bit
attr unit bit
par PriorityV2VAttack.node[5].nic.mac1609_4 dot11ShortRetryLimit 7
par PriorityV2VAttack.node[5].nic.mac1609_4 dot11LongRetryLimit 4
par PriorityV2VAttack.node[5].nic.mac1609_4 ackLength 112bit
attr unit bit
par PriorityV2VAttack.node[5].nic.mac1609_4 useAcks false
par PriorityV2VAttack.node[5].nic.mac1609_4 frameErrorRate 0
par PriorityV2VAttack.node[5].nic.mac1609_4 ackErrorRate 0
scalar PriorityV2VAttack.node[5].nic.mac1609_4 ReceivedUnicastPackets 0
scalar PriorityV2VAttack.node[5].nic.mac1609_4 ReceivedBroadcasts 10004
scalar PriorityV2VAttack.node[5].nic.mac1609_4 SentPackets 1
scalar PriorityV2VAttack.node[5].nic.mac1609_4 SentAcknowledgements 0
scalar PriorityV2VAttack.node[5].nic.mac1609_4 RetriesExceeded 0
scalar PriorityV2VAttack.node[5].nic.mac1609_4 SNIRLostPackets 0
scalar PriorityV2VAttack.node[5].nic.mac1609_4 RXTXLostPackets 0
scalar PriorityV2VAttack.node[5].nic.mac1609_4 TotalLostPackets 0
scalar PriorityV2VAttack.node[5].nic.mac1609_4 DroppedPacketsInMac 0
scalar PriorityV2VAttack.node[5].nic.mac1609_4 TooLittleTime 0
scalar PriorityV2VAttack.node[5].nic.mac1609_4 TimesIntoBackoff 1
scalar PriorityV2VAttack.node[5].nic.mac1609_4 SlotsBackoff 1
scalar PriorityV2VAttack.node[5].nic.mac1609_4 NumInternalContention 0
scalar PriorityV2VAttack.node[5].nic.mac1609_4 totalBusyTime 2.321161
scalar PriorityV2VAttack.node[5].nic.mac1609_4 retriesExceeded:count 0
attr recordingmode count
attr source org_car2x_veins_modules_mac_sigRetriesExceeded
scalar PriorityV2VAttack.node[5].nic.mac1609_4 sentAcks:count 0
attr recordingmode count
attr source org_car2x_veins_modules_mac_sigSentAck
scalar PriorityV2VAttack.node[5].nic.mac1609_4 sentPackets:count 1
attr recordingmode count
attr source org_car2x_veins_modules_mac_sigSentPacket
scalar PriorityV2VAttack.node[5].nic.mac1609_4 collisions:count 0
attr recordingmode count
attr source org_car2x_veins_modules_mac_sigCollision
scalar PriorityV2VAttack.node[5].nic.mac1609_4 channelBusy:timeavg 0.01241262566845
attr recordingmode timeavg
attr source org_car2x_veins_modules_mac_sigChannelBusy
par PriorityV2VAttack.node[5].nic typename "\"org.car2x.veins.modules.nic.Nic80211p\""
par PriorityV2VAttack.node[5].nic connectionManagerName "\"connectionManager\""
par PriorityV2VAttack.node[5].veinsmobility typename "\"org.car2x.veins.modules.mobility.traci.TraCIMobility\""
par PriorityV2VAttack.node[5].veinsmobility notAffectedByHostState true
par PriorityV2VAttack.node[5].veinsmobility x 0
par PriorityV2VAttack.node[5].veinsmobility y 0
par PriorityV2VAttack.node[5].veinsmobility z 0
par PriorityV2VAttack.node[5].veinsmobility xOrientation 1
par PriorityV2VAttack.node[5].veinsmobility yOrientation 0
par PriorityV2VAttack.node[5].veinsmobility zOrientation 0
par PriorityV2VAttack.node[5].veinsmobility hostPositionOffset 0m
attr unit m
par PriorityV2VAttack.node[5].veinsmobility setHostSpeed false
par PriorityV2VAttack.node[5].veinsmobility accidentCount 0
par PriorityV2VAttack.node[5].veinsmobility accidentStart 47.0413s
attr unit s
par PriorityV2VAttack.node[5].veinsmobility accidentDuration "uniform(30s, 60s)"
attr unit s
par PriorityV2VAttack.node[5].veinsmobility accidentInterval "uniform(30s, 60s)"
attr unit s
scalar PriorityV2VAttack.node[5].veinsmobility startTime 13
scalar PriorityV2VAttack.node[5].veinsmobility totalTime 187
scalar PriorityV2VAttack.node[5].veinsmobility stopTime 200
scalar PriorityV2VAttack.node[5].veinsmobility minSpeed 0
scalar PriorityV2VAttack.node[5].veinsmobility maxSpeed 13.998967196981
scalar PriorityV2VAttack.node[5].veinsmobility totalDistance 1884.2070030471
scalar PriorityV2VAttack.node[5].veinsmobility totalCO2Emission 388.52904089793
par PriorityV2VAttack.node[5] typename "\"org.car2x.veins.nodes.Car\""
par PriorityV2VAttack.node[5] applType "\"TraCIDemo11p\""
par PriorityV2VAttack.node[5] nicType "\"Nic80211p\""
par PriorityV2VAttack.node[5] veinsmobilityType "\"org.car2x.veins.modules.mobility.traci.TraCIMobility\""
par PriorityV2VAttack.attacker[1].appl typename "\"org.car2x.veins.modules.application.traci.TraCIV2Vp\""
par PriorityV2VAttack.attacker[1].appl headerLength 80bit
attr unit bit
par PriorityV2VAttack.attacker[1].appl sendBeacons false
par PriorityV2VAttack.attacker[1].appl beaconLengthBits 256bit
attr unit bit
par PriorityV2VAttack.attacker[1].appl beaconUserPriority 7
par PriorityV2VAttack.attacker[1].appl beaconInterval 1s
attr unit s
par PriorityV2VAttack.attacker[1].appl dataLengthBits 1024bit
attr unit bit
par PriorityV2VAttack.attacker[1].appl dataOnSch false
par PriorityV2VAttack.attacker[1].appl dataUserPriority 7
par PriorityV2VAttack.attacker[1].appl avoidBeaconSynchronization true
par PriorityV2VAttack.attacker[1].appl sendWSA false
par PriorityV2VAttack.attacker[1].appl wsaLengthBits 250bit
attr unit bit
par PriorityV2VAttack.attacker[1].appl wsaInterval 1s
attr unit s
scalar PriorityV2VAttack.attacker[1].appl generatedWSMs 10000
scalar PriorityV2VAttack.attacker[1].appl receivedWSMs 5
scalar PriorityV2VAttack.attacker[1].appl generatedBSMs 0
scalar PriorityV2VAttack.attacker[1].appl receivedBSMs 0
scalar PriorityV2VAttack.attacker[1].appl generatedWSAs 0
scalar PriorityV2VAttack.attacker[1].appl receivedWSAs 0
par PriorityV2VAttack.attacker[1].nic.phy80211p typename "\"org.car2x.veins.modules.phy.PhyLayer80211p\""
par PriorityV2VAttack.attacker[1].nic.phy80211p recordStats false
par PriorityV2VAttack.attacker[1].nic.phy80211p usePropagationDelay true
par PriorityV2VAttack.attacker[1].nic.phy80211p noiseFloor -98dBm
attr unit dBm
par PriorityV2VAttack.attacker[1].nic.phy80211p useNoiseFloor true
par PriorityV2VAttack.attacker[1].nic.phy80211p antenna "<Antenna type=\"SampledAntenna1D\" id=\"monopole\">...</Antenna> at /media/DATA/av_surv_veins/veins/examples/veins/PriorityV2VAttack//antenna.xml:35"
par PriorityV2VAttack.attacker[1].nic.phy80211p antennaOffsetX 0m
attr unit m
par PriorityV2VAttack.attacker[1].nic.phy80211p antennaOffsetY 0m
attr unit m
par PriorityV2VAttack.attacker[1].nic.phy80211p antennaOffsetZ 1.895m
attr unit m
par PriorityV2VAttack.attacker[1].nic.phy80211p antennaOffsetYaw 0rad
attr unit rad
par PriorityV2VAttack.attacker[1].nic.phy80211p analogueModels "<root>...</root> at /media/DATA/av_surv_veins/veins/examples/veins/PriorityV2VAttack//config.xml:34"
par PriorityV2VAttack.attacker[1].nic.phy80211p decider "<root>...</root> at /media/DATA/av_surv_veins/veins/examples/veins/PriorityV2VAttack//config.xml:34"
par PriorityV2VAttack.attacker[1].nic.phy80211p minPowerLevel -110dBm
attr unit dBm
par PriorityV2VAttack.attacker[1].nic.phy80211p timeRXToTX 0s
attr unit s
par PriorityV2VAttack.attacker[1].nic.phy80211p timeRXToSleep 0s
attr unit s
par PriorityV2VAttack.attacker[1].nic.phy80211p timeTXToRX 0s
attr unit s
par PriorityV2VAttack.attacker[1].nic.phy80211p timeTXToSleep 0s
attr unit s
par PriorityV2VAttack.attacker[1].nic.phy80211p timeSleepToRX 0s
attr unit s
par PriorityV2VAttack.attacker[1].nic.phy80211p timeSleepToTX 0s
attr unit s
par PriorityV2VAttack.attacker[1].nic.phy80211p initialRadioState 0
par PriorityV2VAttack.attacker[1].nic.phy80211p radioMinAtt 1
par PriorityV2VAttack.attacker[1].nic.phy80211p radioMaxAtt 0
par PriorityV2VAttack.attacker[1].nic.phy80211p nbRadioChannels 1
par PriorityV2VAttack.attacker[1].nic.phy80211p initialRadioChannel 0
par PriorityV2VAttack.attacker[1].nic.phy80211p ccaThreshold -65dBm
attr unit dBm
par PriorityV2VAttack.attacker[1].nic.phy80211p collectCollisionStatistics false
par PriorityV2VAttack.attacker[1].nic.phy80211p allowTxDuringRx false
scalar PriorityV2VAttack.attacker[1].nic.phy80211p busyTime 5.8883248730964e-06
par PriorityV2VAttack.attacker[1].nic.mac1609_4 typename "\"org.car2x.veins.modules.mac.ieee80211p.Mac1609_4\""
par PriorityV2VAttack.attacker[1].nic.mac1609_4 notAffectedByHostState false
par PriorityV2VAttack.attacker[1].nic.mac1609_4 headerLength 0bit
attr unit bit
par PriorityV2VAttack.attacker[1].nic.mac1609_4 address "\"auto\""
par PriorityV2VAttack.attacker[1].nic.mac1609_4 useServiceChannel false
par PriorityV2VAttack.attacker[1].nic.mac1609_4 serviceChannel 1
par PriorityV2VAttack.attacker[1].nic.mac1609_4 bitrate 6000000bps
attr unit bps
par PriorityV2VAttack.attacker[1].nic.mac1609_4 syncOffset 0.0003s
attr unit s
par PriorityV2VAttack.attacker[1].nic.mac1609_4 txPower 20mW
attr unit mW
par PriorityV2VAttack.attacker[1].nic.mac1609_4 queueSize 0
par PriorityV2VAttack.attacker[1].nic.mac1609_4 dot11RTSThreshold 12000bit
attr unit bit
par PriorityV2VAttack.attacker[1].nic.mac1609_4 dot11ShortRetryLimit 7
par PriorityV2VAttack.attacker[1].nic.mac1609_4 dot11LongRetryLimit 4
par PriorityV2VAttack.attacker[1].nic.mac1609_4 ackLength 112bit
attr unit bit
par PriorityV2VAttack.attacker[1].nic.mac1609_4 useAcks false
par PriorityV2VAttack.attacker[1].nic.mac1609_4 frameErrorRate 0
par PriorityV2VAttack.attacker[1].nic.mac1609_4 ackErrorRate 0
scalar PriorityV2VAttack.attacker[1].nic.mac1609_4 ReceivedUnicastPackets 0
scalar PriorityV2VAttack.attacker[1].nic.mac1609_4 ReceivedBroadcasts 5
scalar PriorityV2VAttack.attacker[1].nic.mac1609_4 SentPackets 10000
scalar PriorityV2VAttack.attacker[1].nic.mac1609_4 SentAcknowledgements 0
scalar PriorityV2VAttack.attacker[1].nic.mac1609_4 RetriesExceeded 0
scalar PriorityV2VAttack.attacker[1].nic.mac1609_4 SNIRLostPackets 0
scalar PriorityV2VAttack.attacker[1].nic.mac1609_4 RXTXLostPackets 0
scalar PriorityV2VAttack.attacker[1].nic.mac1609_4 TotalLostPackets 0
scalar PriorityV2VAttack.attacker[1].nic.mac1609_4 DroppedPacketsInMac 0
scalar PriorityV2VAttack.attacker[1].nic.mac1609_4 TooLittleTime 0
scalar PriorityV2VAttack.attacker[1].nic.mac1609_4 TimesIntoBackoff 10000
scalar PriorityV2VAttack.attacker[1].nic.mac1609_4 SlotsBackoff 75559
scalar PriorityV2VAttack.attacker[1].nic.mac1609_4 NumInternalContention 0
scalar PriorityV2VAttack.attacker[1].nic.mac1609_4 totalBusyTime 2.33116
scalar PriorityV2VAttack.attacker[1].nic.mac1609_4 retriesExceeded:count 0
attr recordingmode count
attr source org_car2x_veins_modules_mac_sigRetriesExceeded
scalar PriorityV2VAttack.attacker[1].nic.mac1609_4 sentAcks:count 0
attr recordingmode count
attr source org_car2x_veins_modules_mac_sigSentAck
scalar PriorityV2VAttack.attacker[1].nic.mac1609_4 sentPackets:count 10000
attr recordingmode count
attr source org_car2x_veins_modules_mac_sigSentPacket
scalar PriorityV2VAttack.attacker[1].nic.mac1609_4 collisions:count 0
attr recordingmode count
attr source org_car2x_veins_modules_mac_sigCollision
scalar PriorityV2VAttack.attacker[1].nic.mac1609_4 channelBusy:timeavg 0.011833299492386
attr recordingmode timeavg
attr source org_car2x_veins_modules_mac_sigChannelBusy
par PriorityV2VAttack.attacker[1].nic typename "\"org.car2x.veins.modules.nic.Nic80211p\""
par PriorityV2VAttack.attacker[1].nic connectionManagerName "\"connectionManager\""
par PriorityV2VAttack.attacker[1].veinsmobility typename "\"org.car2x.veins.modules.mobility.traci.TraCIMobility\""
par PriorityV2VAttack.attacker[1].veinsmobility notAffectedByHostState true
par PriorityV2VAttack.attacker[1].veinsmobility x 0
par PriorityV2VAttack.attacker[1].veinsmobility y 0
par PriorityV2VAttack.attacker[1].veinsmobility z 0
par PriorityV2VAttack.attacker[1].veinsmobility xOrientation 1
par PriorityV2VAttack.attacker[1].veinsmobility yOrientation 0
par PriorityV2VAttack.attacker[1].veinsmobility zOrientation 0
par PriorityV2VAttack.attacker[1].veinsmobility hostPositionOffset 0m
attr unit m
par PriorityV2VAttack.attacker[1].veinsmobility setHostSpeed false
par PriorityV2VAttack.attacker[1].veinsmobility accidentCount 0
par PriorityV2VAttack.attacker[1].veinsmobility accidentStart 48.0829s
attr unit s
par PriorityV2VAttack.attacker[1].veinsmobility accidentDuration "uniform(30s, 60s)"
attr unit s
par PriorityV2VAttack.attacker[1].veinsmobility accidentInterval "uniform(30s, 60s)"
attr unit s
scalar PriorityV2VAttack.attacker[1].veinsmobility startTime 3
scalar PriorityV2VAttack.attacker[1].veinsmobility totalTime 197
scalar PriorityV2VAttack.attacker[1].veinsmobility stopTime 200
scalar PriorityV2VAttack.attacker[1].veinsmobility minSpeed 0
scalar PriorityV2VAttack.attacker[1].veinsmobility maxSpeed 13.998327960956
scalar PriorityV2VAttack.attacker[1].veinsmobility totalDistance 1953.5665778733
scalar PriorityV2VAttack.attacker[1].veinsmobility totalCO2Emission 403.95814527791
par PriorityV2VAttack.attacker[1] typename "\"org.car2x.veins.nodes.Car\""
par PriorityV2VAttack.attacker[1] applType "\"TraCIV2Vp\""
par PriorityV2VAttack.attacker[1] nicType "\"Nic80211p\""
par PriorityV2VAttack.attacker[1] veinsmobilityType "\"org.car2x.veins.modules.mobility.traci.TraCIMobility\""
par PriorityV2VAttack typename "\"PriorityV2VAttack.PriorityV2VAttack\""
par PriorityV2VAttack playgroundSizeX 2500m
attr unit m
par PriorityV2VAttack playgroundSizeY 2500m
attr unit m
par PriorityV2VAttack playgroundSizeZ 50m
attr unit m

