version 3
run WithChannelSwitching-0-20230408-17:55:58-12828
attr configname WithChannelSwitching
attr datetime 20230408-17:55:58
attr datetimef 20230408-175558
attr experiment WithChannelSwitching
attr inifile omnetpp_pva.ini
attr iterationvars ""
attr iterationvarsd ""
attr iterationvarsf ""
attr measurement ""
attr network PriorityV2VAttack
attr processid 12828
attr repetition 0
attr replication #0
attr resultdir results
attr runnumber 0
attr seedset 0
config image-path ../../../images
config *.**.nic.mac1609_4.useServiceChannel true
config *.node[*].appl.dataOnSch true
config cmdenv-express-mode true
config cmdenv-autoflush true
config cmdenv-status-frequency 1s
config **.cmdenv-log-level info
config image-path ../../../images
config network PriorityV2VAttack
config debug-on-errors true
config print-undisposed true
config sim-time-limit 200s
config **.scalar-recording true
config **.vector-recording true
config *.playgroundSizeX 2500m
config *.playgroundSizeY 2500m
config *.playgroundSizeZ 50m
config *.annotations.draw true
config *.obstacles.obstacles "xmldoc(\"config.xml\", \"//AnalogueModel[@type='SimpleObstacleShadowing']/obstacles\")"
config *.manager.updateInterval 1s
config *.manager.host "\"localhost\""
config *.manager.port 9999
config *.manager.autoShutdown true
config *.manager.launchConfig "xmldoc(\"erlangen.launchd.xml\")"
config *.connectionManager.sendDirect true
config *.connectionManager.maxInterfDist 2600m
config *.connectionManager.drawMaxIntfDist false
config *.**.nic.mac1609_4.useServiceChannel false
config *.**.nic.mac1609_4.txPower 20mW
config *.**.nic.mac1609_4.bitrate 6Mbps
config *.**.nic.phy80211p.minPowerLevel -110dBm
config *.**.nic.phy80211p.useNoiseFloor true
config *.**.nic.phy80211p.noiseFloor -98dBm
config *.**.nic.phy80211p.decider "xmldoc(\"config.xml\")"
config *.**.nic.phy80211p.analogueModels "xmldoc(\"config.xml\")"
config *.**.nic.phy80211p.usePropagationDelay true
config *.**.nic.phy80211p.antenna "xmldoc(\"antenna.xml\", \"/root/Antenna[@id='monopole']\")"
config *.node[*].nic.phy80211p.antennaOffsetY "0 m"
config *.node[*].nic.phy80211p.antennaOffsetZ "1.895 m"
config *.attacker[*].nic.phy80211p.antennaOffsetY "0 m"
config *.attacker[*].nic.phy80211p.antennaOffsetZ "1.895 m"
config *.manager.moduleType "\"vtype1=org.car2x.veins.nodes.Car *=org.car2x.veins.nodes.Car\""
config *.manager.moduleName "\"vtype1=attacker *=node\""
config *.node[*].applType "\"TraCIDemo11p\""
config *.node[*].appl.headerLength "80 bit"
config *.node[*].appl.sendBeacons false
config *.node[*].appl.dataOnSch false
config *.node[*].appl.beaconInterval 1s
config *.node[*].appl.dataUserPriority 1
config *.attacker[*].applType "\"TraCIV2Vp\""
config *.attacker[*].appl.headerLength "80 bit"
config *.attacker[*].appl.sendBeacons false
config *.attacker[*].appl.dataOnSch false
config *.attacker[*].appl.beaconInterval 1s
config *.attacker[*].appl.dataUserPriority 7
config *.node[*].veinsmobility.x 0
config *.node[*].veinsmobility.y 0
config *.node[*].veinsmobility.z 0
config *.node[*].veinsmobility.setHostSpeed false
config *.node[*0].veinsmobility.accidentCount 1
config *.node[*0].veinsmobility.accidentStart 73s
config *.node[*0].veinsmobility.accidentDuration 50s
config *.attacker[*].veinsmobility.x 0
config *.attacker[*].veinsmobility.y 0
config *.attacker[*].veinsmobility.z 0
config *.attacker[*].veinsmobility.setHostSpeed false

vector 0 PriorityV2VAttack.node[0].veinsmobility posx ETV
vector 1 PriorityV2VAttack.node[0].veinsmobility posy ETV
vector 2 PriorityV2VAttack.node[0].veinsmobility speed ETV
vector 3 PriorityV2VAttack.attacker[1].veinsmobility posx ETV
vector 4 PriorityV2VAttack.attacker[1].veinsmobility posy ETV
vector 5 PriorityV2VAttack.node[0].veinsmobility acceleration ETV
vector 6 PriorityV2VAttack.node[0].veinsmobility co2emission ETV
vector 7 PriorityV2VAttack.attacker[1].veinsmobility speed ETV
vector 8 PriorityV2VAttack.node[2].veinsmobility posx ETV
vector 9 PriorityV2VAttack.node[2].veinsmobility posy ETV
vector 10 PriorityV2VAttack.attacker[1].veinsmobility acceleration ETV
vector 11 PriorityV2VAttack.attacker[1].veinsmobility co2emission ETV
vector 12 PriorityV2VAttack.node[2].veinsmobility speed ETV
vector 13 PriorityV2VAttack.node[3].veinsmobility posx ETV
vector 14 PriorityV2VAttack.node[3].veinsmobility posy ETV
vector 15 PriorityV2VAttack.node[2].veinsmobility acceleration ETV
vector 16 PriorityV2VAttack.node[2].veinsmobility co2emission ETV
vector 17 PriorityV2VAttack.node[3].veinsmobility speed ETV
vector 18 PriorityV2VAttack.node[3].veinsmobility acceleration ETV
vector 19 PriorityV2VAttack.node[3].veinsmobility co2emission ETV
vector 20 PriorityV2VAttack.node[4].veinsmobility posx ETV
vector 21 PriorityV2VAttack.node[4].veinsmobility posy ETV
vector 22 PriorityV2VAttack.node[4].veinsmobility speed ETV
vector 23 PriorityV2VAttack.node[4].veinsmobility acceleration ETV
vector 24 PriorityV2VAttack.node[4].veinsmobility co2emission ETV
vector 25 PriorityV2VAttack.node[5].veinsmobility posx ETV
vector 26 PriorityV2VAttack.node[5].veinsmobility posy ETV
vector 27 PriorityV2VAttack.node[5].veinsmobility speed ETV
vector 28 PriorityV2VAttack.node[5].veinsmobility acceleration ETV
vector 29 PriorityV2VAttack.node[5].veinsmobility co2emission ETV
0	2	1	2414.8476884116
0	22	2	2411.8243290941
0	43	3	2407.1453205772
0	83	4	2402.1930488878
0	124	5	2395.839522927
0	184	6	2388.2506760134
0	245	7	2379.4243412665
0	325	8	2369.6604385128
0	406	9	2359.8701764394
0	487	10	2350.0723518046
0	587	11	2340.629824998
0	688	12	2334.4636372632
0	789	13	2338.1459428046
0	909	14	2348.7941947153
0	1030	15	2359.1405653016
0	1151	16	2372.2667729018
0	1272	17	2386.0703161748
0	1393	18	2399.9601965047
0	1514	19	2412.9391687684
0	1635	20	2421.7328009991
0	1756	21	2429.077861033
0	1877	22	2431.66312744
0	1998	23	2433.425458397
0	2119	24	2435.4578510093
0	2240	25	2437.5543549481
0	2361	26	2438.7685878807
0	2482	27	2439.6711595674
0	2603	28	2440.6821786718
0	2724	29	2441.6934565906
0	2845	30	2442.7035483266
0	2966	31	2443.7151645229
0	3087	32	2444.7267613162
0	3208	33	2445.7381065168
0	3329	34	2446.7475117873
0	3450	35	2447.7583601607
0	3571	36	2448.7687131548
0	3692	37	2449.7780613484
0	3813	38	2450.5186212618
0	3934	39	2449.4064683748
0	4055	40	2448.2938287364
0	4176	41	2447.1821429513
0	4297	42	2446.0681631687
0	4418	43	2444.9540984653
0	4539	44	2443.8417440719
0	4660	45	2442.7289615242
0	4781	46	2441.6161918183
0	4902	47	2440.5033123675
0	5023	48	2439.5601611177
0	5144	49	2438.6526804585
0	5265	50	2437.4905174404
0	5386	51	2431.5360823517
0	5507	52	2420.4888306081
0	5628	53	2407.1907762273
0	5749	54	2393.250349457
0	5870	55	2379.3101575203
0	5991	56	2365.3824681585
0	6112	57	2351.4700129816
0	6233	58	2337.5538924688
0	6354	59	2323.625079949
0	6475	60	2309.7106641812
0	6596	61	2295.7980211971
0	6717	62	2281.8600247749
0	6838	63	2267.9246355455
0	6959	64	2253.9836826271
0	7080	65	2240.1158824177
0	7201	66	2226.2984351168
0	7322	67	2212.6673052539
0	7443	68	2199.4939401426
0	7564	69	2186.3021092681
0	7685	70	2173.5708171563
0	7806	71	2161.5547840521
0	7927	72	2150.7466531842
0	8048	73	2143.6967214971
0	8170	74	2140.5210832088
0	8291	75	2140.3245905411
0	8412	76	2140.3245905411
0	8533	77	2140.3245905411
0	8654	78	2140.3245905411
0	8775	79	2140.3245905411
0	8896	80	2140.3245905411
0	9017	81	2140.3245905411
0	9138	82	2140.3245905411
0	9259	83	2140.3245905411
0	9380	84	2140.3245905411
0	9579	85	2140.3245905411
0	9973	86	2140.3245905411
0	23532	87	2140.3245905411
0	69465	88	2140.3245905411
0	104780	89	2140.3245905411
0	140033	90	2140.3245905411
0	175602	91	2140.3245905411
0	210864	92	2140.3245905411
0	246048	93	2140.3245905411
0	281463	94	2140.3245905411
0	317299	95	2140.3245905411
0	352614	96	2140.3245905411
0	388014	97	2140.3245905411
0	401963	98	2140.3245905411
0	402084	99	2140.3245905411
0	402205	100	2140.3245905411
0	402326	101	2140.3245905411
0	402447	102	2140.3245905411
0	402568	103	2140.3245905411
0	402689	104	2140.3245905411
0	402810	105	2140.3245905411
0	402931	106	2140.3245905411
0	403052	107	2140.3245905411
0	403173	108	2140.3245905411
0	403294	109	2140.3245905411
0	403415	110	2140.3245905411
0	403536	111	2140.3245905411
0	403657	112	2140.3245905411
0	403778	113	2140.3245905411
0	403899	114	2140.3245905411
0	404020	115	2140.3245905411
0	404141	116	2140.3245905411
0	404262	117	2140.3245905411
0	404383	118	2140.3245905411
0	404504	119	2140.3245905411
0	404625	120	2140.3245905411
0	404746	121	2140.3245905411
0	404867	122	2140.3245905411
0	404988	123	2140.3245905411
0	405110	124	2139.3002093873
0	405231	125	2136.7418826451
0	405352	126	2133.0446375553
0	405473	127	2128.0134040526
0	405594	128	2121.678543861
0	405715	129	2113.9062201346
0	405836	130	2104.7983675915
0	405957	131	2095.2758476973
0	406078	132	2085.7346638492
0	406199	133	2076.2163510829
0	406320	134	2066.6959855405
0	406441	135	2057.1643143392
0	406562	136	2047.6138038804
0	406683	137	2037.6185130619
0	406804	138	2027.6281643477
0	406925	139	2017.6261540744
0	407046	140	2007.6398296256
0	407167	141	1997.6390349671
0	407288	142	1987.6447169067
0	407409	143	1977.6540568558
0	407530	144	1967.6434443881
0	407651	145	1957.6377094393
0	407772	146	1947.6416607932
0	407893	147	1937.6466839015
0	408014	148	1927.9113812547
0	408135	149	1918.171095215
0	408256	150	1908.4434931603
0	408377	151	1898.7088140848
0	408498	152	1888.9761249188
0	408619	153	1879.2439420642
0	408740	154	1869.5174918326
0	408861	155	1859.789364465
0	408982	156	1850.0693605874
0	409103	157	1840.3335374044
0	409224	158	1830.3723059995
0	409345	159	1820.2764077998
0	409466	160	1810.1708822323
0	409587	161	1800.2048776624
0	409708	162	1790.2567952404
0	409829	163	1780.2943087248
0	409950	164	1770.3596564553
0	410071	165	1760.4014419809
0	410192	166	1750.4460395881
0	410313	167	1740.4984584115
0	410434	168	1730.5652979113
0	410555	169	1720.6095911446
0	410676	170	1710.6545015409
0	410797	171	1700.6998512637
0	410918	172	1690.7530496639
0	411039	173	1680.7942212113
0	411160	174	1670.8482340937
0	411281	175	1660.8893274677
0	411402	176	1650.9265017561
0	411523	177	1640.979149148
0	411644	178	1631.0218716075
0	411765	179	1621.0586092037
0	411886	180	1611.2672606088
0	412007	181	1601.4563999546
0	412128	182	1591.6341842351
0	412249	183	1581.8108284181
0	412370	184	1571.990080028
0	412491	185	1562.1866262286
0	412612	186	1551.7712799978
0	412733	187	1541.2150579111
0	412854	188	1530.6821054282
0	412975	189	1520.1398688291
0	413096	190	1509.5889093985
0	413217	191	1498.5695398597
0	413338	192	1487.1786035979
0	413459	193	1475.78566387
0	413580	194	1464.3722205419
0	413701	195	1452.9699666353
0	413822	196	1440.8059454396
0	413943	197	1428.1976923343
0	414064	198	1415.559245725
0	414185	199	1402.9274262817
0	414306	200	1389.6724301211
1	2	1	1578.4613427464
1	22	2	1579.5715045081
1	43	3	1581.5702703726
1	83	4	1586.5862393426
1	124	5	1593.0214858446
1	184	6	1600.7079422874
1	245	7	1609.647803423
1	325	8	1619.5372917838
1	406	9	1629.4534785049
1	487	10	1639.3773250589
1	587	11	1649.5882006837
1	688	12	1661.637796483
1	789	13	1673.9472733997
1	909	14	1682.8832983179
1	1030	15	1692.2139144605
1	1151	16	1695.6575851934
1	1272	17	1697.4476678129
1	1393	18	1698.7718058983
1	1514	19	1699.9990543984
1	1635	20	1700.8305510487
1	1756	21	1701.8068650085
1	1877	22	1710.7668937054
1	1998	23	1722.3639275022
1	2119	24	1735.7381043117
1	2240	25	1749.5341662476
1	2361	26	1763.4086002223
1	2482	27	1777.321774561
1	2603	28	1791.2252809294
1	2724	29	1805.1323465062
1	2845	30	1819.0230997317
1	2966	31	1832.9348172899
1	3087	32	1846.8462680206
1	3208	33	1860.7542588552
1	3329	34	1874.6355718272
1	3450	35	1888.536730309
1	3571	36	1902.4310763469
1	3692	37	1916.3116043974
1	3813	38	1930.2045903346
1	3934	39	1944.0857032873
1	4055	40	1957.97289153
1	4176	41	1971.8481744444
1	4297	42	1985.7520894269
1	4418	43	1999.6570643336
1	4539	44	2013.5406923471
1	4660	45	2027.4296642831
1	4781	46	2041.3184759384
1	4902	47	2055.2086573513
1	5023	48	2069.1358612897
1	5144	49	2083.016957284
1	5265	50	2096.8502575662
1	5386	51	2109.1947352802
1	5507	52	2117.3220580574
1	5628	53	2120.8990969192
1	5749	54	2120.4282470616
1	5870	55	2119.957405136
1	5991	56	2119.4869854953
1	6112	57	2119.017080402
1	6233	58	2118.5470515089
1	6354	59	2118.0765939327
1	6475	60	2117.6066226186
1	6596	61	2117.1367111821
1	6717	62	2116.6659434121
1	6838	63	2116.1952637015
1	6959	64	2115.7243960723
1	7080	65	2114.4755642908
1	7201	66	2112.5161434663
1	7322	67	2109.9195305128
1	7443	68	2105.4517384293
1	7564	69	2100.9776836196
1	7685	70	2095.497212626
1	7806	71	2088.4235636648
1	7927	72	2082.0609876774
1	8048	73	2077.9108042074
1	8170	74	2076.0413560895
1	8291	75	2075.9256839585
1	8412	76	2075.9256839585
1	8533	77	2075.9256839585
1	8654	78	2075.9256839585
1	8775	79	2075.9256839585
1	8896	80	2075.9256839585
1	9017	81	2075.9256839585
1	9138	82	2075.9256839585
1	9259	83	2075.9256839585
1	9380	84	2075.9256839585
1	9579	85	2075.9256839585
1	9973	86	2075.9256839585
1	23532	87	2075.9256839585
1	69465	88	2075.9256839585
1	104780	89	2075.9256839585
1	140033	90	2075.9256839585
1	175602	91	2075.9256839585
1	210864	92	2075.9256839585
1	246048	93	2075.9256839585
1	281463	94	2075.9256839585
1	317299	95	2075.9256839585
1	352614	96	2075.9256839585
1	388014	97	2075.9256839585
1	401963	98	2075.9256839585
1	402084	99	2075.9256839585
1	402205	100	2075.9256839585
1	402326	101	2075.9256839585
1	402447	102	2075.9256839585
1	402568	103	2075.9256839585
1	402689	104	2075.9256839585
1	402810	105	2075.9256839585
1	402931	106	2075.9256839585
1	403052	107	2075.9256839585
1	403173	108	2075.9256839585
1	403294	109	2075.9256839585
1	403415	110	2075.9256839585
1	403536	111	2075.9256839585
1	403657	112	2075.9256839585
1	403778	113	2075.9256839585
1	403899	114	2075.9256839585
1	404020	115	2075.9256839585
1	404141	116	2075.9256839585
1	404262	117	2075.9256839585
1	404383	118	2075.9256839585
1	404504	119	2075.9256839585
1	404625	120	2075.9256839585
1	404746	121	2075.9256839585
1	404867	122	2075.9256839585
1	404988	123	2075.9256839585
1	405110	124	2075.1275552576
1	405231	125	2072.867333821
1	405352	126	2068.9205205552
1	405473	127	2063.5496731689
1	405594	128	2056.7872028351
1	405715	129	2048.4902385706
1	405836	130	2038.7675958024
1	405957	131	2028.6022951733
1	406078	132	2018.417070752
1	406199	133	2008.256261237
1	406320	134	1998.0932603814
1	406441	135	1987.9181907214
1	406562	136	1977.7665322451
1	406683	137	1968.0501208147
1	406804	138	1958.3385135997
1	406925	139	1948.615570195
1	407046	140	1938.9078749632
1	407167	141	1929.186113256
1	407288	142	1919.470647444
1	407409	143	1909.7587375781
1	407530	144	1900.02743199
1	407651	145	1890.3008678323
1	407772	146	1880.5837197192
1	407893	147	1870.8658596538
1	408014	148	1860.8897034042
1	408135	149	1850.9084404707
1	408256	150	1840.9401753265
1	408377	151	1830.964658075
1	408498	152	1820.9911799645
1	408619	153	1811.018220691
1	408740	154	1801.0511358669
1	408861	155	1791.0823324136
1	408982	156	1781.121853428
1	409103	157	1771.1451637633
1	409224	158	1761.4067858877
1	409345	159	1751.8182562068
1	409466	160	1742.2205829797
1	409587	161	1732.4840678228
1	409708	162	1722.7348224521
1	409829	163	1712.9714608891
1	409950	164	1703.2353772353
1	410071	165	1693.4762023259
1	410192	166	1683.7197832912
1	410313	167	1673.9710291475
1	410434	168	1664.2364074457
1	410555	169	1654.4796901215
1	410676	170	1644.7235776251
1	410797	171	1634.9678956736
1	410918	172	1625.2199055236
1	411039	173	1615.460128908
1	411160	174	1605.7129369611
1	411281	175	1595.953083735
1	411402	176	1586.189389755
1	411523	177	1576.4408596102
1	411644	178	1566.6826029085
1	411765	179	1556.9184809644
1	411886	180	1547.1477704253
1	412007	181	1537.2441600384
1	412128	182	1527.3290872378
1	412249	183	1517.412863561
1	412370	184	1507.4992719619
1	412491	185	1497.6031384524
1	412612	186	1488.3415105762
1	412733	187	1479.2103216965
1	412854	188	1470.0992611498
1	412975	189	1460.9801697927
1	413096	190	1451.8535331395
1	413217	191	1443.2979255952
1	413338	192	1435.2704950152
1	413459	193	1427.2416525502
1	413580	194	1419.19836077
1	413701	195	1411.1629544087
1	413822	196	1404.4145720983
1	413943	197	1398.4702889351
1	414064	198	1392.5117707513
1	414185	199	1386.5563770095
1	414306	200	1382.1895149173
2	22	2	4.1061966058897
2	43	3	5.9789997053199
2	83	4	8.0093729254633
2	124	5	9.8764173609048
2	184	6	11.596768546606
2	245	7	13.455906855406
2	325	8	13.973411976623
2	406	9	13.878008961661
2	487	10	13.968044070094
2	587	11	13.981497396906
2	688	12	13.99814016083
2	789	13	13.923542996629
2	909	14	13.91007151508
2	1030	15	13.964598868005
2	1151	16	13.96687521836
2	1272	17	13.952304350403
2	1393	18	13.956911946491
2	1514	19	11.308624817275
2	1635	20	6.8086248172749
2	1756	21	8.4461817170353
2	1877	22	10.624212629727
2	1998	23	12.557629030298
2	2119	24	13.872831924674
2	2240	25	13.98525414166
2	2361	26	13.925435421765
2	2482	27	13.955199324498
2	2603	28	13.88918493646
2	2724	29	13.979664632629
2	2845	30	13.937930595062
2	2966	31	13.906015034565
2	3087	32	13.998227208101
2	3208	33	13.988192806833
2	3329	34	13.998502501769
2	3450	35	13.993922886373
2	3571	36	13.945127228512
2	3692	37	13.959951251952
2	3813	38	13.886837075693
2	3934	39	13.895681023148
2	4055	40	13.964872835542
2	4176	41	13.991644618935
2	4297	42	13.985489140681
2	4418	43	13.934071304377
2	4539	44	13.959362317654
2	4660	45	13.967522231955
2	4781	46	13.940664265624
2	4902	47	13.889081600807
2	5023	48	13.961157139561
2	5144	49	13.942521108142
2	5265	50	13.891655223593
2	5386	51	13.973152450395
2	5507	52	13.883243719845
2	5628	53	13.995758196278
2	5749	54	13.952239667964
2	5870	55	13.955770944299
2	5991	56	13.919550240268
2	6112	57	13.890115879602
2	6233	58	13.982012811573
2	6354	59	13.954506225567
2	6475	60	13.954468280503
2	6596	61	13.945513836897
2	6717	62	13.993123242173
2	6838	63	13.914571281173
2	6959	64	13.88221136349
2	7080	65	13.923532148069
2	7201	66	13.945770793585
2	7322	67	13.973948582511
2	7443	68	13.893637255763
2	7564	69	13.996249677537
2	7685	70	13.928761894358
2	7806	71	13.870405760119
2	7927	72	10.648582886362
2	8048	73	6.1600396071981
2	8170	74	1.6600396071981
2	8291	75	0
2	8412	76	0
2	8533	77	0
2	8654	78	0
2	8775	79	0
2	8896	80	0
2	9017	81	0
2	9138	82	0
2	9259	83	0
2	9380	84	0
2	9579	85	0
2	9973	86	0
2	23532	87	0
2	69465	88	0
2	104780	89	0
2	140033	90	0
2	175602	91	0
2	210864	92	0
2	246048	93	0
2	281463	94	0
2	317299	95	0
2	352614	96	0
2	388014	97	0
2	401963	98	0
2	402084	99	0
2	402205	100	0
2	402326	101	0
2	402447	102	0
2	402568	103	0
2	402689	104	0
2	402810	105	0
2	402931	106	0
2	403052	107	0
2	403173	108	0
2	403294	109	0
2	403415	110	0
2	403536	111	0
2	403657	112	0
2	403778	113	0
2	403899	114	0
2	404020	115	0
2	404141	116	0
2	404262	117	0
2	404383	118	0
2	404504	119	0
2	404625	120	0
2	404746	121	0
2	404867	122	0
2	404988	123	0
2	405110	124	2.2219942613752
2	405231	125	4.3816652589273
2	405352	126	6.271098397682
2	405473	127	8.1846742143464
2	405594	128	10.238758130733
2	405715	129	12.368734642219
2	405836	130	13.896718291966
2	405957	131	13.911634699195
2	406078	132	13.994902517959
2	406199	133	13.870053731997
2	406320	134	13.874626658834
2	406441	135	13.920382400334
2	406562	136	13.951488414339
2	406683	137	13.901121964687
2	406804	138	13.882344841273
2	406925	139	13.93839835058
2	407046	140	13.915164393331
2	407167	141	13.940713392529
2	407288	142	13.933927406024
2	407409	143	13.890401338409
2	407530	144	13.996025419473
2	407651	145	13.881536796647
2	407772	146	13.894070957832
2	407893	147	13.990746577485
2	408014	148	13.900286123792
2	408135	149	13.946558753557
2	408256	150	13.873320181423
2	408377	151	13.881839076644
2	408498	152	13.947724058882
2	408619	153	13.942398770128
2	408740	154	13.93949202654
2	408861	155	13.874414421821
2	408982	156	13.910654884398
2	409103	157	13.931918415038
2	409224	158	13.872459704871
2	409345	159	13.932245766823
2	409466	160	13.908633437622
2	409587	161	13.996635483608
2	409708	162	13.926375439006
2	409829	163	13.997844680566
2	409950	164	13.898853874858
2	410071	165	13.92978552412
2	410192	166	13.925159839098
2	410313	167	13.918733168186
2	410434	168	13.913190334414
2	410555	169	13.911510896785
2	410676	170	13.991509729908
2	410797	171	13.916351590399
2	410918	172	13.966534997355
2	411039	173	13.95199746937
2	411160	174	13.873021191314
2	411281	175	13.956997573012
2	411402	176	13.975757075921
2	411523	177	13.912612352434
2	411644	178	13.991960056
2	411765	179	13.951830342882
2	411886	180	13.929496678174
2	412007	181	13.878089943773
2	412128	182	13.938250236956
2	412249	183	13.922101011877
2	412370	184	13.994347229733
2	412491	185	13.916482416282
2	412612	186	13.90528861128
2	412733	187	13.921083884011
2	412854	188	13.910010552092
2	412975	189	13.908050642761
2	413096	190	13.978709612093
2	413217	191	13.960658139281
2	413338	192	13.996360867096
2	413459	193	13.887962815345
2	413580	194	13.980948975335
2	413701	195	13.925325378878
2	413822	196	13.946562061303
2	413943	197	13.880639836157
2	414064	198	13.967846674775
2	414185	199	13.891077681468
2	414306	200	13.880399412508
3	43	3	2415.087236425
3	83	4	2412.4587210473
3	124	5	2408.1110644841
3	184	6	2403.345089719
3	245	7	2397.301088883
3	325	8	2389.8465583593
3	406	9	2381.0050762888
3	487	10	2371.2393109209
3	587	11	2361.456275242
3	688	12	2351.6667241531
3	789	13	2342.0239308892
3	909	14	2334.8374564956
3	1030	15	2336.3667948003
3	1151	16	2347.1019757818
3	1272	17	2357.4476331343
3	1393	18	2370.0085037187
3	1514	19	2383.8136269193
3	1635	20	2396.7444725132
3	1756	21	2407.6328206152
3	1877	22	2418.0576361992
3	1998	23	2425.241117702
3	2119	24	2430.8771458919
3	2240	25	2432.3860260363
3	2361	26	2434.1924756131
3	2482	27	2436.2460850258
3	2603	28	2438.1719409506
3	2724	29	2439.0688789508
3	2845	30	2440.0491260703
3	2966	31	2441.0597969076
3	3087	32	2442.0698649774
3	3208	33	2443.0800035406
3	3329	34	2444.0908696008
3	3450	35	2445.1010609196
3	3571	36	2446.1119071692
3	3692	37	2447.1220664025
3	3813	38	2448.1328479752
3	3934	39	2449.1441845684
3	4055	40	2450.1548796889
3	4176	41	2450.1033546728
3	4297	42	2448.9902161405
3	4418	43	2447.8786713759
3	4539	44	2446.7652954366
3	4660	45	2445.6528633082
3	4781	46	2444.5395005981
3	4902	47	2443.4273969199
3	5023	48	2442.3142710602
3	5144	49	2441.2022595162
3	5265	50	2440.152200238
3	5386	51	2439.2116699235
3	5507	52	2438.6008381236
3	5628	53	2436.2202088925
3	5749	54	2428.0266388487
3	5870	55	2415.7269269659
3	5991	56	2401.9812450237
3	6112	57	2388.0569046448
3	6233	58	2374.1420472234
3	6354	59	2360.2077564648
3	6475	60	2346.2997526325
3	6596	61	2332.3692457912
3	6717	62	2318.446393178
3	6838	63	2304.4843849735
3	6959	64	2290.5624019726
3	7080	65	2276.6296919236
3	7201	66	2262.7131494643
3	7322	67	2248.7719490241
3	7443	68	2234.9544729422
3	7564	69	2221.1719816749
3	7685	70	2207.7442959497
3	7806	71	2194.5495380741
3	7927	72	2181.3478890252
3	8048	73	2169.3396655932
3	8170	74	2160.0448880065
3	8291	75	2153.3984868822
3	8412	76	2149.080832033
3	8533	77	2146.6241071442
3	8654	78	2145.4312431742
3	8775	79	2144.9250732085
3	8896	80	2144.739359487
3	9017	81	2144.6717673598
3	9138	82	2144.6477223689
3	9259	83	2144.6390779603
3	9380	84	2144.6359943108
3	9579	85	2144.6348924844
3	9973	86	2144.6344981422
3	23532	87	2144.6343562368
3	69465	88	2144.6343059891
3	104780	89	2144.6342877605
3	140033	90	2144.6342858577
3	175602	91	2144.6342858577
3	210864	92	2144.6342858577
3	246048	93	2144.6342858577
3	281463	94	2144.6342858577
3	317299	95	2144.6342858577
3	352614	96	2144.6342858577
3	388014	97	2144.6342858577
3	401963	98	2144.6342858577
3	402084	99	2144.6342858577
3	402205	100	2144.6342858577
3	402326	101	2144.6342858577
3	402447	102	2144.6342858577
3	402568	103	2144.6342858577
3	402689	104	2144.6342858577
3	402810	105	2144.6342858577
3	402931	106	2144.6342858577
3	403052	107	2144.6342858577
3	403173	108	2144.6342858577
3	403294	109	2144.6342858577
3	403415	110	2144.6342858577
3	403536	111	2144.6342858577
3	403657	112	2144.6342858577
3	403778	113	2144.6342858577
3	403899	114	2144.6342858577
3	404020	115	2144.6342858577
3	404141	116	2144.6342858577
3	404262	117	2144.6342858577
3	404383	118	2144.6342858577
3	404504	119	2144.6342858577
3	404625	120	2144.6342858577
3	404746	121	2144.6342858577
3	404867	122	2144.6342858577
3	404988	123	2144.6342858577
3	405110	124	2144.2717213706
3	405231	125	2142.4852626633
3	405352	126	2139.1459286549
3	405473	127	2134.9092315615
3	405594	128	2127.1506884383
3	405715	129	2120.4396629527
3	405836	130	2112.3748830794
3	405957	131	2103.1445977011
3	406078	132	2093.6125902018
3	406199	133	2084.0916533082
3	406320	134	2074.5763025238
3	406441	135	2065.0651152468
3	406562	136	2055.5394557185
3	406683	137	2046.0139620028
3	406804	138	2036.037109718
3	406925	139	2026.0416056495
3	407046	140	2016.0550466815
3	407167	141	2006.0567219785
3	407288	142	1996.0671525134
3	407409	143	1986.0604344947
3	407530	144	1976.0609414392
3	407651	145	1966.0742382994
3	407772	146	1956.0763707043
3	407893	147	1946.080606018
3	408014	148	1936.1058996693
3	408135	149	1926.3646586477
3	408256	150	1916.6311003271
3	408377	151	1906.9156451061
3	408498	152	1897.1749465653
3	408619	153	1887.4528587305
3	408740	154	1877.712342709
3	408861	155	1867.9721673065
3	408982	156	1858.2386061777
3	409103	157	1848.5064636704
3	409224	158	1838.7728124516
3	409345	159	1828.8473996331
3	409466	160	1818.7378593694
3	409587	161	1808.6428767099
3	409708	162	1798.6742544788
3	409829	163	1788.7246805537
3	409950	164	1778.7677239976
3	410071	165	1768.8099679751
3	410192	166	1758.8591216704
3	410313	167	1748.9128437561
3	410434	168	1738.9707903019
3	410555	169	1729.0174916936
3	410676	170	1719.0717174138
3	410797	171	1709.114103868
3	410918	172	1699.1778347171
3	411039	173	1689.2347137365
3	411160	174	1679.280362524
3	411281	175	1669.3206322597
3	411402	176	1659.3682247862
3	411523	177	1649.4367705794
3	411644	178	1639.5040289077
3	411765	179	1629.5605934152
3	411886	180	1619.6037500148
3	412007	181	1609.8014063163
3	412128	182	1600.0098564072
3	412249	183	1590.2211058246
3	412370	184	1580.4298020296
3	412491	185	1570.6357577529
3	412612	186	1560.8476054245
3	412733	187	1550.5297658183
3	412854	188	1539.9942773335
3	412975	189	1529.4722505535
3	413096	190	1518.9360938797
3	413217	191	1508.3955709209
3	413338	192	1497.494714934
3	413459	193	1486.1245983572
3	413580	194	1474.72842462
3	413701	195	1463.3484035747
3	413822	196	1451.971828096
3	413943	197	1439.9294116861
3	414064	198	1427.3646526543
3	414185	199	1414.8016906489
3	414306	200	1402.2171742361
4	43	3	1578.3733819658
4	83	4	1579.3385590939
4	124	5	1580.9349958943
4	184	6	1585.4193806918
4	245	7	1591.541120884
4	325	8	1599.0915333284
4	406	9	1608.0467366157
4	487	10	1617.9381115492
4	587	11	1627.846978928
4	688	12	1637.7624455197
4	789	13	1647.8035281617
4	909	14	1659.386512001
4	1030	15	1672.4773174776
4	1151	16	1681.3572128983
4	1272	17	1690.6871858286
4	1393	18	1695.3200452719
4	1514	19	1697.1790714292
4	1635	20	1698.4677377213
4	1756	21	1699.4973037448
4	1877	22	1700.4830396743
4	1998	23	1701.0489956802
4	2119	24	1705.5947354669
4	2240	25	1715.5239340439
4	2361	26	1727.4112907937
4	2482	27	1740.9250849374
4	2603	28	1754.7107961001
4	2724	29	1768.6133265514
4	2845	30	1782.519559307
4	2966	31	1796.4182763174
4	3087	32	1810.3087040847
4	3208	33	1824.2001012769
4	3329	34	1838.1015029857
4	3450	35	1851.9936256707
4	3571	36	1865.8947549453
4	3692	37	1879.7864363901
4	3813	38	1893.6866762303
4	3934	39	1907.5945486967
4	4055	40	1921.4935996477
4	4176	41	1935.3876568843
4	4297	42	1949.2810719712
4	4418	43	1963.154594766
4	4539	44	1977.0509730009
4	4660	45	1990.9355712496
4	4781	46	2004.8317843657
4	4902	47	2018.7122831289
4	5023	48	2032.6055400455
4	5144	49	2046.4848888535
4	5265	50	2060.3886459358
4	5386	51	2074.2847229447
4	5507	52	2088.2008895781
4	5628	53	2101.8381140539
4	5749	54	2112.9736565091
4	5870	55	2119.4506807448
4	5991	56	2120.7231405396
4	6112	57	2120.2528340137
4	6233	58	2119.7828477826
4	6354	59	2119.312205174
4	6475	60	2118.8424504288
4	6596	61	2118.3719356256
4	6717	62	2117.9016793501
4	6838	63	2117.4301005611
4	6959	64	2116.9598736577
4	7080	65	2116.489284439
4	7201	66	2116.0192412939
4	7322	67	2115.5483653052
4	7443	68	2113.7436365336
4	7564	69	2111.7891727453
4	7685	70	2108.2498749765
4	7806	71	2103.7748274636
4	7927	72	2099.2974427864
4	8048	73	2093.0064005088
4	8170	74	2087.5347117027
4	8291	75	2083.6220803047
4	8412	76	2081.0803450681
4	8533	77	2079.6341099162
4	8654	78	2078.9318897324
4	8775	79	2078.6339154653
4	8896	80	2078.5245887293
4	9017	81	2078.4847983113
4	9138	82	2078.4706434049
4	9259	83	2078.4655545782
4	9380	84	2078.4637392825
4	9579	85	2078.4630906545
4	9973	86	2078.4628585121
4	23532	87	2078.4627749743
4	69465	88	2078.4627453946
4	104780	89	2078.4627346629
4	140033	90	2078.4627335435
4	175602	91	2078.4627335435
4	210864	92	2078.4627335435
4	246048	93	2078.4627335435
4	281463	94	2078.4627335435
4	317299	95	2078.4627335435
4	352614	96	2078.4627335435
4	388014	97	2078.4627335435
4	401963	98	2078.4627335435
4	402084	99	2078.4627335435
4	402205	100	2078.4627335435
4	402326	101	2078.4627335435
4	402447	102	2078.4627335435
4	402568	103	2078.4627335435
4	402689	104	2078.4627335435
4	402810	105	2078.4627335435
4	402931	106	2078.4627335435
4	403052	107	2078.4627335435
4	403173	108	2078.4627335435
4	403294	109	2078.4627335435
4	403415	110	2078.4627335435
4	403536	111	2078.4627335435
4	403657	112	2078.4627335435
4	403778	113	2078.4627335435
4	403899	114	2078.4627335435
4	404020	115	2078.4627335435
4	404141	116	2078.4627335435
4	404262	117	2078.4627335435
4	404383	118	2078.4627335435
4	404504	119	2078.4627335435
4	404625	120	2078.4627335435
4	404746	121	2078.4627335435
4	404867	122	2078.4627335435
4	404988	123	2078.4627335435
4	405110	124	2078.2492975546
4	405231	125	2077.1976375207
4	405352	126	2075.0043609412
4	405473	127	2070.9109767415
4	405594	128	2067.4522938402
4	405715	129	2060.289016637
4	405836	130	2051.6807564031
4	405957	131	2041.8284479938
4	406078	132	2031.6540846024
4	406199	133	2021.4915378578
4	406320	134	2011.3349536667
4	406441	135	2001.1828135587
4	406562	136	1991.0152259246
4	406683	137	1980.8478152771
4	406804	138	1971.1158665381
4	406925	139	1961.3995259861
4	407046	140	1951.6918807067
4	407167	141	1941.9727982963
4	407288	142	1932.2622266002
4	407409	143	1922.5349852908
4	407530	144	1912.8147671595
4	407651	145	1903.1069817347
4	407772	146	1893.3883436667
4	407893	147	1883.6717497753
4	408014	148	1873.975626085
4	408135	149	1864.0317714512
4	408256	150	1854.0575693827
4	408377	151	1844.1019179784
4	408498	152	1834.1203991612
4	408619	153	1824.1579511641
4	408740	154	1814.1766193788
4	408861	155	1804.1956366329
4	408982	156	1794.2214316865
4	409103	157	1784.2486804351
4	409224	158	1774.2743831715
4	409345	159	1764.5104035996
4	409466	160	1754.9107743576
4	409587	161	1745.3249684554
4	409708	162	1735.6086320514
4	409829	163	1725.8578834841
4	409950	164	1716.0998998154
4	410071	165	1706.3411326567
4	410192	166	1696.589137136
4	410313	167	1686.8416187149
4	410434	168	1677.0982403345
4	410555	169	1667.3438415164
4	410676	170	1657.5968166646
4	410797	171	1647.8381891353
4	410918	172	1638.1004794696
4	411039	173	1628.3560548956
4	411160	174	1618.6006245073
4	411281	175	1608.8399225585
4	411402	176	1599.0863970667
4	411523	177	1589.3534061257
4	411644	178	1579.6191534484
4	411765	179	1569.8744206475
4	411886	180	1560.1165478732
4	412007	181	1550.360103542
4	412128	182	1540.4760188591
4	412249	183	1530.5947599579
4	412370	184	1520.7109237155
4	412491	185	1510.8243210921
4	412612	186	1500.9436660986
4	412733	187	1491.6211250322
4	412854	188	1482.5089414315
4	412975	189	1473.4084009109
4	413096	190	1464.2956393911
4	413217	191	1455.179101455
4	413338	192	1446.5550877936
4	413459	193	1438.5478190416
4	413580	194	1430.5221998449
4	413701	195	1422.5079559889
4	413822	196	1414.4961386323
4	413943	197	1407.6460799323
4	414064	198	1401.7223024722
4	414185	199	1395.7993722362
4	414306	200	1389.8662799662
5	43	3	1.8728030994302
5	83	4	2.0303732201434
5	124	5	1.8670444354415
5	184	6	1.7203511857009
5	245	7	1.8591383088008
5	325	8	0.51750512121652
5	406	9	-0.095403014961629
5	487	10	0.090035108432639
5	587	11	0.013453326812014
5	688	12	0.016642763924319
5	789	13	-0.074597164201549
5	909	14	-0.013471481548622
5	1030	15	0.054527352924923
5	1151	16	0.0022763503552419
5	1272	17	-0.014570867957081
5	1393	18	0.0046075960877356
5	1514	19	-2.648287129216
5	1635	20	-4.5
5	1756	21	1.6375568997604
5	1877	22	2.1780309126922
5	1998	23	1.9334164005704
5	2119	24	1.3152028943762
5	2240	25	0.11242221698631
5	2361	26	-0.059818719895556
5	2482	27	0.029763902733102
5	2603	28	-0.06601438803831
5	2724	29	0.090479696169496
5	2845	30	-0.041734037566931
5	2966	31	-0.031915560497437
5	3087	32	0.092212173535954
5	3208	33	-0.010034401267767
5	3329	34	0.010309694935568
5	3450	35	-0.0045796153950501
5	3571	36	-0.048795657861048
5	3692	37	0.014824023440015
5	3813	38	-0.073114176259841
5	3934	39	0.0088439474557518
5	4055	40	0.069191812393255
5	4176	41	0.026771783393343
5	4297	42	-0.0061554782534952
5	4418	43	-0.051417836304754
5	4539	44	0.025291013277601
5	4660	45	0.0081599143007782
5	4781	46	-0.026857966331299
5	4902	47	-0.051582664817106
5	5023	48	0.072075538753998
5	5144	49	-0.018636031418573
5	5265	50	-0.050865884548985
5	5386	51	0.081497226802167
5	5507	52	-0.08990873055067
5	5628	53	0.11251447643386
5	5749	54	-0.043518528314307
5	5870	55	0.0035312763345434
5	5991	56	-0.036220704030711
5	6112	57	-0.029434360666201
5	6233	58	0.091896931971423
5	6354	59	-0.027506586005911
5	6475	60	-3.7945064249811e-05
5	6596	61	-0.0089544436056173
5	6717	62	0.047609405275434
5	6838	63	-0.078551960999611
5	6959	64	-0.032359917683062
5	7080	65	0.041320784578566
5	7201	66	0.022238645516335
5	7322	67	0.028177788925824
5	7443	68	-0.080311326747761
5	7564	69	0.10261242177337
5	7685	70	-0.067487783178221
5	7806	71	-0.058356134239585
5	7927	72	-3.2218228737569
5	8048	73	-4.4885432791637
5	8170	74	-4.5
5	8291	75	-1.6600396071981
5	8412	76	0
5	8533	77	0
5	8654	78	0
5	8775	79	0
5	8896	80	0
5	9017	81	0
5	9138	82	0
5	9259	83	0
5	9380	84	0
5	9579	85	0
5	9973	86	0
5	23532	87	0
5	69465	88	0
5	104780	89	0
5	140033	90	0
5	175602	91	0
5	210864	92	0
5	246048	93	0
5	281463	94	0
5	317299	95	0
5	352614	96	0
5	388014	97	0
5	401963	98	0
5	402084	99	0
5	402205	100	0
5	402326	101	0
5	402447	102	0
5	402568	103	0
5	402689	104	0
5	402810	105	0
5	402931	106	0
5	403052	107	0
5	403173	108	0
5	403294	109	0
5	403415	110	0
5	403536	111	0
5	403657	112	0
5	403778	113	0
5	403899	114	0
5	404020	115	0
5	404141	116	0
5	404262	117	0
5	404383	118	0
5	404504	119	0
5	404625	120	0
5	404746	121	0
5	404867	122	0
5	404988	123	0
5	405110	124	2.2219942613752
5	405231	125	2.1596709975521
5	405352	126	1.8894331387547
5	405473	127	1.9135758166644
5	405594	128	2.0540839163866
5	405715	129	2.1299765114859
5	405836	130	1.5279836497474
5	405957	131	0.014916407228448
5	406078	132	0.083267818763851
5	406199	133	-0.12484878596151
5	406320	134	0.0045729268365537
5	406441	135	0.045755741500761
5	406562	136	0.031106014004909
5	406683	137	-0.050366449651774
5	406804	138	-0.018777123414912
5	406925	139	0.056053509307095
5	407046	140	-0.02323395724874
5	407167	141	0.025548999197781
5	407288	142	-0.0067859865049833
5	407409	143	-0.043526067615021
5	407530	144	0.10562408106402
5	407651	145	-0.11448862282559
5	407772	146	0.012534161184449
5	407893	147	0.096675619652959
5	408014	148	-0.090460453692357
5	408135	149	0.046272629764861
5	408256	150	-0.073238572133704
5	408377	151	0.008518895220476
5	408498	152	0.065884982238058
5	408619	153	-0.0053252887539568
5	408740	154	-0.002906743588392
5	408861	155	-0.065077604718971
5	408982	156	0.03624046257697
5	409103	157	0.021263530640862
5	409224	158	-0.059458710167091
5	409345	159	0.05978606195189
5	409466	160	-0.023612329200841
5	409587	161	0.088002045985776
5	409708	162	-0.070260044601746
5	409829	163	0.071469241559971
5	409950	164	-0.098990805707871
5	410071	165	0.030931649261619
5	410192	166	-0.0046256850217468
5	410313	167	-0.0064266709121874
5	410434	168	-0.0055428337724877
5	410555	169	-0.0016794376284821
5	410676	170	0.079998833122664
5	410797	171	-0.075158139509149
5	410918	172	0.050183406956494
5	411039	173	-0.01453752798494
5	411160	174	-0.078976278055924
5	411281	175	0.083976381698157
5	411402	176	0.018759502908214
5	411523	177	-0.063144723486621
5	411644	178	0.079347703566309
5	411765	179	-0.040129713118077
5	411886	180	-0.022333664707839
5	412007	181	-0.051406734401827
5	412128	182	0.060160293183291
5	412249	183	-0.016149225078989
5	412370	184	0.072246217855717
5	412491	185	-0.077864813450724
5	412612	186	-0.011193805001676
5	412733	187	0.015795272730756
5	412854	188	-0.011073331919032
5	412975	189	-0.0019599093310543
5	413096	190	0.070658969331999
5	413217	191	-0.018051472811495
5	413338	192	0.035702727814206
5	413459	193	-0.10839805175085
5	413580	194	0.092986159990541
5	413701	195	-0.055623596457298
5	413822	196	0.021236682424787
5	413943	197	-0.065922225145624
5	414064	198	0.087206838617567
5	414185	199	-0.076768993306905
5	414306	200	-0.010678268959746
6	43	3	4.1167668903806
6	83	4	5.4629825043428
6	124	5	6.1194046058172
6	184	6	6.6215754659546
6	245	7	8.0131302877348
6	325	8	3.7788698068686
6	406	9	1.7073090278309
6	487	10	2.3386593059183
6	587	11	2.0822829045482
6	688	12	2.0948021431415
6	789	13	1.7807126546494
6	909	14	1.9844951865828
6	1030	15	2.2187318873595
6	1151	16	2.0431168971899
6	1272	17	1.9849702338739
6	1393	18	2.0499339673421
6	1514	19	0.973
6	1635	20	0.973
6	1756	21	4.9064010427209
6	1877	22	7.3099995346188
6	1998	23	7.7499838805377
6	2119	24	6.4230548755872
6	2240	25	2.4162492122599
6	2361	26	1.830468513235
6	2482	27	2.1343627711725
6	2603	28	1.8065605717879
6	2724	29	2.3415987497462
6	2845	30	1.8923104551965
6	2966	31	1.9222826567934
6	3087	32	2.349750320055
6	3208	33	2.0038097394705
6	3329	34	2.0734752638004
6	3450	35	2.0227796135116
6	3571	36	1.8692403700243
6	3692	37	2.084619690333
6	3813	38	1.7825981052735
6	3934	39	2.0578080718071
6	4055	40	2.268117252608
6	4176	41	2.1282650880838
6	4297	42	2.0166131901633
6	4418	43	1.8594361067942
6	4539	44	2.1197704833803
6	4660	45	2.062988537836
6	4781	46	1.9425411750845
6	4902	47	1.8548585613045
6	5023	48	2.2773779780732
6	5144	49	1.970345666612
6	5265	50	1.857488034975
6	5386	51	2.3105413245945
6	5507	52	1.7261038276299
6	5628	53	2.4179215050886
6	5749	54	1.8876276396477
6	5870	55	2.0461960363559
6	5991	56	1.909115486539
6	6112	57	1.9290927407511
6	6233	58	2.3466660406794
6	6354	59	1.9416842431598
6	6475	60	2.0340583936544
6	6596	61	2.0031764052984
6	6717	62	2.1986977886641
6	6838	63	1.7666973762772
6	6959	64	1.9185573079767
6	7080	65	2.1696826795052
6	7201	66	2.1080399085383
6	7322	67	2.1310734253014
6	7443	68	1.7590712333387
6	7564	69	2.3845846398967
6	7685	70	1.8050160857582
6	7806	71	1.8305505744011
6	7927	72	0.973
6	8048	73	0.973
6	8170	74	0.973
6	8291	75	0.973
6	8412	76	0.973
6	8533	77	0.973
6	8654	78	0.973
6	8775	79	0.973
6	8896	80	0.973
6	9017	81	0.973
6	9138	82	0.973
6	9259	83	0.973
6	9380	84	0.973
6	9579	85	0.973
6	9973	86	0.973
6	23532	87	0.973
6	69465	88	0.973
6	104780	89	0.973
6	140033	90	0.973
6	175602	91	0.973
6	210864	92	0.973
6	246048	93	0.973
6	281463	94	0.973
6	317299	95	0.973
6	352614	96	0.973
6	388014	97	0.973
6	401963	98	0.973
6	402084	99	0.973
6	402205	100	0.973
6	402326	101	0.973
6	402447	102	0.973
6	402568	103	0.973
6	402689	104	0.973
6	402810	105	0.973
6	402931	106	0.973
6	403052	107	0.973
6	403173	108	0.973
6	403294	109	0.973
6	403415	110	0.973
6	403536	111	0.973
6	403657	112	0.973
6	403778	113	0.973
6	403899	114	0.973
6	404020	115	0.973
6	404141	116	0.973
6	404262	117	0.973
6	404383	118	0.973
6	404504	119	0.973
6	404625	120	0.973
6	404746	121	0.973
6	404867	122	0.973
6	404988	123	0.973
6	405110	124	2.4080817491368
6	405231	125	3.6097150181135
6	405352	126	4.2908662920557
6	405473	127	5.3300190940896
6	405594	128	6.7716083595646
6	405715	129	8.2306431470796
6	405836	130	7.1456804450868
6	405957	131	2.0798255390429
6	406078	132	2.3191682825405
6	406199	133	1.6082559213645
6	406320	134	2.041341198165
6	406441	135	2.1842086286227
6	406562	136	2.1384694997038
6	406683	137	1.8600084915429
6	406804	138	1.9640130440965
6	406925	139	2.2208369285194
6	407046	140	1.9522585332739
6	407167	141	2.1186181801077
6	407288	142	2.0093003716045
6	407409	143	1.8819465388882
6	407530	144	2.3947145548295
6	407651	145	1.643736494877
6	407772	146	2.0699973962873
6	407893	147	2.3638669059736
6	408014	148	1.7256198873154
6	408135	149	2.1889057362864
6	408256	150	1.781046614307
6	408377	151	2.0552833871103
6	408498	152	2.2549627576318
6	408619	153	2.0150593911405
6	408740	154	2.0228912419178
6	408861	155	1.8084265614033
6	408982	156	2.1512104110793
6	409103	157	2.1032775045285
6	409224	158	1.8270440973468
6	409345	159	2.2326585778226
6	409466	160	1.9503614511034
6	409587	161	2.3353501767691
6	409708	162	1.7955070659202
6	409829	163	2.2797267154215
6	409950	164	1.6969318642051
6	410071	165	2.1355056007782
6	410192	166	2.0156701936831
6	410313	167	2.0089808746599
6	410434	168	2.0113881726672
6	410555	169	2.0241720219964
6	410676	170	2.3077295475271
6	410797	171	1.7782274319394
6	410918	172	2.2043339411053
6	411039	173	1.9850520552854
6	411160	174	1.7618380853752
6	411281	175	2.31691055312
6	411402	176	2.0995485605296
6	411523	177	1.8181944013182
6	411644	178	2.3055887362321
6	411765	179	1.8989846269414
6	411886	180	1.9566618588118
6	412007	181	1.8544662206567
6	412128	182	2.234614980947
6	412249	183	1.9766976166272
6	412370	184	2.2819283461995
6	412491	185	1.7691605563639
6	412612	186	1.9916564929001
6	412733	187	2.0837710670817
6	412854	188	1.99252852172
6	412975	189	2.0228808614171
6	413096	190	2.2747067007991
6	413217	191	1.9740842768189
6	413338	192	2.1589041643072
6	413459	193	1.6645976466364
6	413580	194	2.3502035811239
6	413701	195	1.8445377259227
6	413822	196	2.1047572512474
6	413943	197	1.8061360510748
6	414064	198	2.3291141609331
6	414185	199	1.7707192427041
6	414306	200	1.9909162058012
7	83	4	3.6359876041102
7	124	5	5.4397244124148
7	184	6	7.5635227996261
7	245	7	9.4603126667334
7	325	8	11.518787345457
7	406	9	13.489969157172
7	487	10	13.889363473887
7	587	11	13.957880210027
7	688	12	13.945207432676
7	789	13	13.877422518721
7	909	14	13.917387860524
7	1030	15	13.887004709987
7	1151	16	13.964633335914
7	1272	17	13.967113367824
7	1393	18	13.93747206229
7	1514	19	13.931683103743
7	1635	20	11.577300624978
7	1756	21	10.992561969771
7	1877	22	8.9671972303461
7	1998	23	7.3147879075397
7	2119	24	9.0678373446896
7	2240	25	10.853095042547
7	2361	26	12.964081919135
7	2482	27	13.915510937227
7	2603	28	13.971422964323
7	2724	29	13.941478930372
7	2845	30	13.892778996523
7	2966	31	13.903094408868
7	3087	32	13.950461398256
7	3208	33	13.957559130192
7	3329	34	13.92272057577
7	3450	35	13.930623820233
7	3571	36	13.872205206307
7	3692	37	13.943903224608
7	3813	38	13.967722393647
7	3934	39	13.950761595755
7	4055	40	13.891407757371
7	4176	41	13.931263487607
7	4297	42	13.989458580737
7	4418	43	13.981500841614
7	4539	44	13.991147160537
7	4660	45	13.910710662541
7	4781	46	13.929671112262
7	4902	47	13.903310020338
7	5023	48	13.975807425713
7	5144	49	13.891258782956
7	5265	50	13.878995543714
7	5386	51	13.91271662473
7	5507	52	13.99672767462
7	5628	53	13.904448671283
7	5749	54	13.954811747659
7	5870	55	13.963033125761
7	5991	56	13.998327960956
7	6112	57	13.970455647933
7	6233	58	13.874182712052
7	6354	59	13.982985400616
7	6475	60	13.927164004399
7	6596	61	13.986976957638
7	6717	62	13.954892217969
7	6838	63	13.994800812206
7	6959	64	13.898880426479
7	7080	65	13.92846844774
7	7201	66	13.888742394324
7	7322	67	13.943797341238
7	7443	68	13.955750993581
7	7564	69	13.913506242358
7	7685	70	13.952743970044
7	7806	71	13.913389077839
7	7927	72	13.907857767178
7	8048	73	12.667115429986
7	8170	74	9.3284672607684
7	8291	75	6.3798349936169
7	8412	76	3.9545644133574
7	8533	77	2.0813918978178
7	8654	78	0.94660400522149
7	8775	79	0.3550080345337
7	8896	80	0.13300954520883
7	9017	81	0.04761210187623
7	9138	82	0.016556260583258
7	9259	83	0.0060299975878108
7	9380	84	0.0022086661525585
7	9579	85	0.00077387756089072
7	9973	86	0.00027705706484514
7	23532	87	0.00010011109167846
7	69465	88	3.5160591756001e-05
7	104780	89	1.2548449055998e-05
7	140033	90	0
7	175602	91	0
7	210864	92	0
7	246048	93	0
7	281463	94	0
7	317299	95	0
7	352614	96	0
7	388014	97	0
7	401963	98	0
7	402084	99	0
7	402205	100	0
7	402326	101	0
7	402447	102	0
7	402568	103	0
7	402689	104	0
7	402810	105	0
7	402931	106	0
7	403052	107	0
7	403173	108	0
7	403294	109	0
7	403415	110	0
7	403536	111	0
7	403657	112	0
7	403778	113	0
7	403899	114	0
7	404020	115	0
7	404141	116	0
7	404262	117	0
7	404383	118	0
7	404504	119	0
7	404625	120	0
7	404746	121	0
7	404867	122	0
7	404988	123	0
7	405110	124	1.0445196988184
7	405231	125	2.9884987905018
7	405352	126	4.8096514315674
7	405473	127	6.8174035782801
7	405594	128	8.7691594325763
7	405715	129	10.599526541095
7	405836	130	12.631053849006
7	405957	131	13.932286097549
7	406078	132	13.994998328597
7	406199	133	13.883296603279
7	406320	134	13.995512177472
7	406441	135	13.871056991376
7	406562	136	13.986917692865
7	406683	137	13.943966757681
7	406804	138	13.893585113562
7	406925	139	13.992263416776
7	407046	140	13.920795998226
7	407167	141	13.915540341362
7	407288	142	13.996009150492
7	407409	143	13.943330722374
7	407530	144	13.946069068462
7	407651	145	13.887471471685
7	407772	146	13.954565620734
7	407893	147	13.949356459095
7	408014	148	13.890423635682
7	408135	149	13.995531136338
7	408256	150	13.928451775922
7	408377	151	13.908741175602
7	408498	152	13.968066943185
7	408619	153	13.952280158203
7	408740	154	13.93189917359
7	408861	155	13.917479771134
7	408982	156	13.944930259488
7	409103	157	13.942285124382
7	409224	158	13.956302337011
7	409345	159	13.903866642474
7	409466	160	13.9240639326
7	409587	161	13.933277849404
7	409708	162	13.962557790081
7	409829	163	13.940771950665
7	409950	164	13.990735980936
7	410071	165	13.993270096739
7	410192	166	13.89890422689
7	410313	167	13.899982463606
7	410434	168	13.967460071535
7	410555	169	13.939273965724
7	410676	170	13.932982838717
7	410797	171	13.997624491004
7	410918	172	13.88149274193
7	411039	173	13.976876426819
7	411160	174	13.97329661432
7	411281	175	13.994996224095
7	411402	176	13.990226365826
7	411523	177	13.889543105531
7	411644	178	13.920602701949
7	411765	179	13.903073119156
7	411886	180	13.989799513917
7	412007	181	13.99414861413
7	412128	182	13.927120065547
7	412249	183	13.888711553761
7	412370	184	13.89216463842
7	412491	185	13.883774607172
7	412612	186	13.8771053078
7	412733	187	13.942535004022
7	412854	188	13.933725612797
7	412975	189	13.878250423442
7	413096	190	13.92670037474
7	413217	191	13.979902832913
7	413338	192	13.870879058794
7	413459	193	13.993614553264
7	413580	194	13.98724852459
7	413701	195	13.881139268694
7	413822	196	13.900324886546
7	413943	197	13.975571279626
7	414064	198	13.920376998347
7	414185	199	13.992463456639
7	414306	200	13.962742153339
8	124	5	2415.400390152
8	184	6	2413.0191479239
8	245	7	2408.8249249904
8	325	8	2404.0005011697
8	406	9	2398.1105156684
8	487	10	2390.8388377914
8	587	11	2382.1995701396
8	688	12	2372.5048716533
8	789	13	2362.7304040561
8	909	14	2352.9378675392
8	1030	15	2343.143725432
8	1151	16	2335.1295069718
8	1272	17	2335.1658911702
8	1393	18	2345.7869753884
8	1514	19	2356.1529741121
8	1635	20	2368.2880326652
8	1756	21	2381.9814290039
8	1877	22	2395.0000316246
8	1998	23	2405.4370980331
8	2119	24	2415.4642480598
8	2240	25	2423.2386685482
8	2361	26	2430.3090379719
8	2482	27	2431.9896722351
8	2603	28	2433.7719874576
8	2724	29	2435.8189302887
8	2845	30	2437.8642760974
8	2966	31	2438.9024753132
8	3087	32	2439.8467241514
8	3208	33	2440.857489909
8	3329	34	2441.867181077
8	3450	35	2442.878503281
8	3571	36	2443.8889671724
8	3692	37	2444.8992656055
8	3813	38	2445.9104465091
8	3934	39	2446.9183823535
8	4055	40	2447.9294257697
8	4176	41	2448.9401909899
8	4297	42	2449.948890319
8	4418	43	2450.3303391745
8	4539	44	2449.2192108785
8	4660	45	2448.107285656
8	4781	46	2446.9930858642
8	4902	47	2445.8802595369
8	5023	48	2444.7677921283
8	5144	49	2443.6565488857
8	5265	50	2442.5430851536
8	5386	51	2441.4309995327
8	5507	52	2440.3460235541
8	5628	53	2439.4047183199
8	5749	54	2438.580052697
8	5870	55	2437.0607781091
8	5991	56	2430.082354017
8	6112	57	2418.3749081139
8	6233	58	2404.8745448667
8	6354	59	2390.925761636
8	6475	60	2376.9965951032
8	6596	61	2363.0618729036
8	6717	62	2349.1402715852
8	6838	63	2335.2332103606
8	6959	64	2321.286223413
8	7080	65	2307.3438524295
8	7201	66	2293.4150906474
8	7322	67	2279.4642674313
8	7443	68	2265.5389595808
8	7564	69	2251.6138047257
8	7685	70	2237.7711881803
8	7806	71	2223.9585453295
8	7927	72	2210.4215935624
8	8048	73	2197.2497355877
8	8170	74	2184.1560222558
8	8291	75	2173.3790648172
8	8412	76	2165.2579163206
8	8533	77	2159.094177821
8	8654	78	2154.7060673891
8	8775	79	2151.8673929111
8	8896	80	2150.2658268631
8	9017	81	2149.4848939162
8	9138	82	2149.1540103682
8	9259	83	2149.0244250954
8	9380	84	2148.9748358403
8	9579	85	2148.9557454451
8	9973	86	2148.9484369097
8	23532	87	2148.9456711904
8	69465	88	2148.9446069569
8	104780	89	2148.9442051017
8	140033	90	2148.9440560852
8	175602	91	2148.9440027666
8	210864	92	2148.9439836544
8	246048	93	2148.9439807659
8	281463	94	2148.9439807659
8	317299	95	2148.9439807659
8	352614	96	2148.9439807659
8	388014	97	2148.9439807659
8	401963	98	2148.9439807659
8	402084	99	2148.9439807659
8	402205	100	2148.9439807659
8	402326	101	2148.9439807659
8	402447	102	2148.9439807659
8	402568	103	2148.9439807659
8	402689	104	2148.9439807659
8	402810	105	2148.9439807659
8	402931	106	2148.9439807659
8	403052	107	2148.9439807659
8	403173	108	2148.9439807659
8	403294	109	2148.9439807659
8	403415	110	2148.9439807659
8	403536	111	2148.9439807659
8	403657	112	2148.9439807659
8	403778	113	2148.9439807659
8	403899	114	2148.9439807659
8	404020	115	2148.9439807659
8	404141	116	2148.9439807659
8	404262	117	2148.9439807659
8	404383	118	2148.9439807659
8	404504	119	2148.9439807659
8	404625	120	2148.9439807659
8	404746	121	2148.9439807659
8	404867	122	2148.9439807659
8	404988	123	2148.9439807659
8	405110	124	2148.8716102471
8	405231	125	2148.0161872718
8	405352	126	2145.7409141796
8	405473	127	2141.8733518528
8	405594	128	2136.8029471489
8	405715	129	2131.2449759532
8	405836	130	2124.2940059
8	405957	131	2115.9766934039
8	406078	132	2106.6115042769
8	406199	133	2097.0666230372
8	406320	134	2087.5328600521
8	406441	135	2078.0091333556
8	406562	136	2068.4784623771
8	406683	137	2058.9594811682
8	406804	138	2049.4296776565
8	406925	139	2039.5050860436
8	407046	140	2029.5249548657
8	407167	141	2019.5400472507
8	407288	142	2009.533990707
8	407409	143	1999.5439854724
8	407530	144	1989.5451146845
8	407651	145	1979.555666277
8	407772	146	1969.5644468612
8	407893	147	1959.567912942
8	408014	148	1949.5739881702
8	408135	149	1939.5825588773
8	408256	150	1929.7934891112
8	408377	151	1920.0541287722
8	408498	152	1910.3170949299
8	408619	153	1900.5733838635
8	408740	154	1890.8284439512
8	408861	155	1881.0893687609
8	408982	156	1871.3706979457
8	409103	157	1861.6248774631
8	409224	158	1851.8954401392
8	409345	159	1842.1633106656
8	409466	160	1832.2692106802
8	409587	161	1822.1719754958
8	409708	162	1812.06556337
8	409829	163	1802.0811600043
8	409950	164	1792.1305675168
8	410071	165	1782.1730285721
8	410192	166	1772.2183328171
8	410313	167	1762.2784361094
8	410434	168	1752.3166761507
8	410555	169	1742.3580897516
8	410676	170	1732.4143763648
8	410797	171	1722.4654428092
8	410918	172	1712.5053665566
8	411039	173	1702.5637813068
8	411160	174	1692.6303107422
8	411281	175	1682.6749342884
8	411402	176	1672.7326412403
8	411523	177	1662.7657988009
8	411644	178	1652.8196503478
8	411765	179	1642.8619352975
8	411886	180	1632.9171552791
8	412007	181	1622.9650430336
8	412128	182	1613.1447368049
8	412249	183	1603.3285788283
8	412370	184	1593.5091230758
8	412491	185	1583.6780757064
8	412612	186	1573.8642500833
8	412733	187	1564.0314163287
8	412854	188	1553.7524845504
8	412975	189	1543.1974216837
8	413096	190	1532.6460677612
8	413217	191	1522.100616268
8	413338	192	1511.5680125721
8	413459	193	1500.7245688956
8	413580	194	1489.3266051433
8	413701	195	1477.9080498979
8	413822	196	1466.4992508122
8	413943	197	1455.09610738
8	414064	198	1443.1612140625
8	414185	199	1430.5232680787
8	414306	200	1417.8572319348
9	124	5	1578.2583935512
9	184	6	1579.1327732699
9	245	7	1580.6728700418
9	325	8	1584.7555391854
9	406	9	1590.7212830614
9	487	10	1598.0864909654
9	587	11	1606.8368789051
9	688	12	1616.656272877
9	789	13	1626.5564619703
9	909	14	1636.4749523886
9	1030	15	1646.3950690497
9	1151	16	1657.6276707007
9	1272	17	1671.1840366451
9	1393	18	1680.1713126069
9	1514	19	1689.5196298948
9	1635	20	1695.0628891857
9	1756	21	1696.9609989887
9	1877	22	1698.3027891852
9	1998	23	1699.2896835124
9	2119	24	1700.2378175072
9	2240	25	1700.9330409411
9	2361	26	1703.0854300633
9	2482	27	1712.9157244964
9	2603	28	1724.6442649234
9	2724	29	1738.1141895698
9	2845	30	1751.9116492001
9	2966	31	1765.8227579901
9	3087	32	1779.7361337943
9	3208	33	1793.6361561455
9	3329	34	1807.5214007702
9	3450	35	1821.4290753566
9	3571	36	1835.3249464519
9	3692	37	1849.2185421707
9	3813	38	1863.1242735973
9	3934	39	1876.9853790617
9	4055	40	1890.8892197656
9	4176	41	1904.7892347258
9	4297	42	1918.6608396098
9	4418	43	1932.5545954024
9	4539	44	1946.4229201283
9	4660	45	1960.3011915311
9	4781	46	1974.2078525163
9	4902	47	1988.0973708788
9	5023	48	2001.9824094698
9	5144	49	2015.8521688785
9	5265	50	2029.7496428816
9	5386	51	2043.6299162656
9	5507	52	2057.5249596862
9	5628	53	2071.4324859232
9	5749	54	2085.3483084282
9	5870	55	2099.1278760219
9	5991	56	2110.9827003228
9	6112	57	2118.2670043893
9	6233	58	2120.8208642201
9	6354	59	2120.3497321168
9	6475	60	2119.8792625833
9	6596	61	2119.4086054023
9	6717	62	2118.9383913903
9	6838	63	2118.4686684823
9	6959	64	2117.997597049
9	7080	65	2117.5266815238
9	7201	66	2117.0562256612
9	7322	67	2116.5850246549
9	7443	68	2116.1146854516
9	7564	69	2115.6443514163
9	7685	70	2114.143068525
9	7806	71	2112.1843290087
9	7927	72	2109.1578896688
9	8048	73	2104.6906087371
9	8170	74	2100.249830829
9	8291	75	2095.3843310522
9	8412	76	2090.6035391605
9	8533	77	2086.9750436284
9	8654	78	2084.3918323023
9	8775	79	2082.7207494583
9	8896	80	2081.7779328143
9	9017	81	2081.3182099191
9	9138	82	2081.1234239982
9	9259	83	2081.0471391948
9	9380	84	2081.0179467825
9	9579	85	2081.0067085689
9	9973	86	2081.0024061492
9	23532	87	2081.0007780138
9	69465	88	2081.0001515169
9	104780	89	2080.9999149507
9	140033	90	2080.9998272276
9	175602	91	2080.9997958392
9	210864	92	2080.9997845879
9	246048	93	2080.9997828882
9	281463	94	2080.9997828882
9	317299	95	2080.9997828882
9	352614	96	2080.9997828882
9	388014	97	2080.9997828882
9	401963	98	2080.9997828882
9	402084	99	2080.9997828882
9	402205	100	2080.9997828882
9	402326	101	2080.9997828882
9	402447	102	2080.9997828882
9	402568	103	2080.9997828882
9	402689	104	2080.9997828882
9	402810	105	2080.9997828882
9	402931	106	2080.9997828882
9	403052	107	2080.9997828882
9	403173	108	2080.9997828882
9	403294	109	2080.9997828882
9	403415	110	2080.9997828882
9	403536	111	2080.9997828882
9	403657	112	2080.9997828882
9	403778	113	2080.9997828882
9	403899	114	2080.9997828882
9	404020	115	2080.9997828882
9	404141	116	2080.9997828882
9	404262	117	2080.9997828882
9	404383	118	2080.9997828882
9	404504	119	2080.9997828882
9	404625	120	2080.9997828882
9	404746	121	2080.9997828882
9	404867	122	2080.9997828882
9	404988	123	2080.9997828882
9	405110	124	2080.9571795063
9	405231	125	2080.4536055075
9	405352	126	2079.1141881635
9	405473	127	2076.8374152882
9	405594	128	2072.9325202471
9	405715	129	2066.9993797839
9	405836	130	2059.5792114846
9	405957	131	2050.7004710995
9	406078	132	2040.7031212403
9	406199	133	2030.5139498496
9	406320	134	2020.3366472088
9	406441	135	2010.1700583166
9	406562	136	1999.9960563965
9	406683	137	1989.8345333179
9	406804	138	1979.6614574185
9	406925	139	1969.8840563763
9	407046	140	1960.1823816169
9	407167	141	1950.4760636883
9	407288	142	1940.7491869088
9	407409	143	1931.0379135888
9	407530	144	1921.3180220751
9	407651	145	1911.6072900463
9	407772	146	1901.894836423
9	407893	147	1892.1772165764
9	408014	148	1882.4621330788
9	408135	149	1872.7494754344
9	408256	150	1862.8183750371
9	408377	151	1852.8380607069
9	408498	152	1842.8601304311
9	408619	153	1832.875357735
9	408740	154	1822.889325791
9	408861	155	1812.9093036642
9	408982	156	1802.9501907211
9	409103	157	1792.9632564215
9	409224	158	1782.9931106037
9	409345	159	1773.0202060314
9	409466	160	1763.2083617831
9	409587	161	1753.6185623072
9	409708	162	1744.020047076
9	409829	163	1734.3228480183
9	409950	164	1724.5711427517
9	410071	165	1714.8126298701
9	410192	166	1705.0569033492
9	410313	167	1695.315680081
9	410434	168	1685.5530305523
9	410555	169	1675.7934911521
9	410676	170	1666.0485274903
9	410797	171	1656.2984479973
9	410918	172	1646.5374485217
9	411039	173	1636.7945704609
9	411160	174	1627.0596448928
9	411281	175	1617.3032512795
9	411402	176	1607.5596795669
9	411523	177	1597.7920491435
9	411644	178	1588.0446990859
9	411765	179	1578.286013619
9	411886	180	1568.5400046445
9	412007	181	1558.7868099958
9	412128	182	1549.042995871
9	412249	183	1539.1340380823
9	412370	184	1529.2217513407
9	412491	185	1519.297763397
9	412612	186	1509.3911600113
9	412733	187	1499.4653687943
9	412854	188	1490.0552631691
9	412975	189	1480.9250770221
9	413096	190	1471.7980991313
9	413217	191	1462.676226873
9	413338	192	1453.5654680291
9	413459	193	1444.8166195452
9	413580	194	1436.7842365457
9	413701	195	1428.7373422906
9	413822	196	1420.6973234052
9	413943	197	1412.6612901771
9	414064	198	1405.5249863248
9	414185	199	1399.5667041661
9	414306	200	1393.5951786293
10	124	5	1.8037368083047
10	184	6	2.1237983872113
10	245	7	1.8967898671073
10	325	8	2.0584746787231
10	406	9	1.9711818117159
10	487	10	0.39939431671414
10	587	11	0.06851673614001
10	688	12	-0.012672777350527
10	789	13	-0.067784913955256
10	909	14	0.039965341803617
10	1030	15	-0.030383150537963
10	1151	16	0.077628625927026
10	1272	17	0.0024800319108191
10	1393	18	-0.02964130553417
10	1514	19	-0.0057889585476367
10	1635	20	-2.3543824787641
10	1756	21	-0.58473865520789
10	1877	22	-2.0253647394245
10	1998	23	-1.6524093228063
10	2119	24	1.7530494371499
10	2240	25	1.7852576978575
10	2361	26	2.1109868765878
10	2482	27	0.95142901809203
10	2603	28	0.055912027095911
10	2724	29	-0.029944033951033
10	2845	30	-0.048699933849274
10	2966	31	0.010315412345808
10	3087	32	0.047366989387665
10	3208	33	0.0070977319357919
10	3329	34	-0.034838554421441
10	3450	35	0.0079032444627956
10	3571	36	-0.058418613926042
10	3692	37	0.071698018300813
10	3813	38	0.023819169038907
10	3934	39	-0.016960797891953
10	4055	40	-0.059353838383686
10	4176	41	0.039855730235578
10	4297	42	0.058195093129761
10	4418	43	-0.0079577391222116
10	4539	44	0.0096463189227496
10	4660	45	-0.08043649799656
10	4781	46	0.018960449721197
10	4902	47	-0.026361091923899
10	5023	48	0.072497405374888
10	5144	49	-0.084548642756417
10	5265	50	-0.012263239242602
10	5386	51	0.03372108101612
10	5507	52	0.084011049889959
10	5628	53	-0.092279003337026
10	5749	54	0.050363076375797
10	5870	55	0.008221378102899
10	5991	56	0.035294835194945
10	6112	57	-0.027872313023545
10	6233	58	-0.096272935881279
10	6354	59	0.10880268856417
10	6475	60	-0.055821396217215
10	6596	61	0.059812953239307
10	6717	62	-0.032084739669227
10	6838	63	0.039908594237641
10	6959	64	-0.095920385727659
10	7080	65	0.029588021261153
10	7201	66	-0.039726053415798
10	7322	67	0.055054946914314
10	7443	68	0.011953652342783
10	7564	69	-0.042244751222897
10	7685	70	0.039237727685832
10	7806	71	-0.039354892205449
10	7927	72	-0.0055313106602988
10	8048	73	-1.2407423371918
10	8170	74	-3.338648169218
10	8291	75	-2.9486322671515
10	8412	76	-2.4252705802596
10	8533	77	-1.8731725155396
10	8654	78	-1.1347878925963
10	8775	79	-0.59159597068779
10	8896	80	-0.22199848932487
10	9017	81	-0.085397443332603
10	9138	82	-0.031055841292972
10	9259	83	-0.010526262995447
10	9380	84	-0.0038213314352524
10	9579	85	-0.0014347885916677
10	9973	86	-0.00049682049604558
10	23532	87	-0.00017694597316668
10	69465	88	-6.4950499922457e-05
10	104780	89	-2.2612142700003e-05
10	140033	90	-1.2548449055998e-05
10	175602	91	0
10	210864	92	0
10	246048	93	0
10	281463	94	0
10	317299	95	0
10	352614	96	0
10	388014	97	0
10	401963	98	0
10	402084	99	0
10	402205	100	0
10	402326	101	0
10	402447	102	0
10	402568	103	0
10	402689	104	0
10	402810	105	0
10	402931	106	0
10	403052	107	0
10	403173	108	0
10	403294	109	0
10	403415	110	0
10	403536	111	0
10	403657	112	0
10	403778	113	0
10	403899	114	0
10	404020	115	0
10	404141	116	0
10	404262	117	0
10	404383	118	0
10	404504	119	0
10	404625	120	0
10	404746	121	0
10	404867	122	0
10	404988	123	0
10	405110	124	1.0445196988184
10	405231	125	1.9439790916834
10	405352	126	1.8211526410656
10	405473	127	2.0077521467127
10	405594	128	1.9517558542962
10	405715	129	1.8303671085183
10	405836	130	2.0315273079113
10	405957	131	1.3012322485435
10	406078	132	0.062712231047918
10	406199	133	-0.11170172531856
10	406320	134	0.11221557419282
10	406441	135	-0.12445518609602
10	406562	136	0.11586070148973
10	406683	137	-0.042950935184489
10	406804	138	-0.050381644119042
10	406925	139	0.098678303214255
10	407046	140	-0.071467418549583
10	407167	141	-0.0052556568640281
10	407288	142	0.08046880912967
10	407409	143	-0.05267842811765
10	407530	144	0.0027383460872805
10	407651	145	-0.058597596776673
10	407772	146	0.067094149049373
10	407893	147	-0.0052091616392147
10	408014	148	-0.058932823413052
10	408135	149	0.10510750065558
10	408256	150	-0.067079360415228
10	408377	151	-0.01971060032025
10	408498	152	0.059325767583214
10	408619	153	-0.015786784982774
10	408740	154	-0.020380984612276
10	408861	155	-0.014419402456841
10	408982	156	0.027450488354079
10	409103	157	-0.0026451351051211
10	409224	158	0.014017212628387
10	409345	159	-0.052435694537126
10	409466	160	0.020197290126234
10	409587	161	0.0092139168037093
10	409708	162	0.029279940677808
10	409829	163	-0.021785839416554
10	409950	164	0.04996403027093
10	410071	165	0.002534115803428
10	410192	166	-0.094365869848987
10	410313	167	0.0010782367154025
10	410434	168	0.067477607929613
10	410555	169	-0.028186105811038
10	410676	170	-0.006291127006989
10	410797	171	0.06464165228652
10	410918	172	-0.11613174907398
10	411039	173	0.095383684888947
10	411160	174	-0.003579812499229
10	411281	175	0.021699609775096
10	411402	176	-0.0047698582685545
10	411523	177	-0.10068326029461
10	411644	178	0.031059596417473
10	411765	179	-0.01752958279336
10	411886	180	0.086726394761355
10	412007	181	0.0043491002125666
10	412128	182	-0.067028548582458
10	412249	183	-0.038408511786255
10	412370	184	0.0034530846588314
10	412491	185	-0.0083900312474015
10	412612	186	-0.006669299372005
10	412733	187	0.065429696221836
10	412854	188	-0.0088093912252223
10	412975	189	-0.055475189355203
10	413096	190	0.048449951298535
10	413217	191	0.053202458173038
10	413338	192	-0.10902377411956
10	413459	193	0.12273549447069
10	413580	194	-0.0063660286739466
10	413701	195	-0.10610925589688
10	413822	196	0.019185617852489
10	413943	197	0.075246393079871
10	414064	198	-0.05519428127911
10	414185	199	0.072086458292324
10	414306	200	-0.029721303300466
11	124	5	3.7519333531351
11	184	6	5.3861141467011
11	245	7	5.9691385980353
11	325	8	7.521235568555
11	406	9	8.3960113602518
11	487	10	3.3644554792148
11	587	11	2.2650147320434
11	688	12	1.9906492143152
11	789	13	1.799630522272
11	909	14	2.1644488460248
11	1030	15	1.9256230326053
11	1151	16	2.2964826603433
11	1272	17	2.043826998489
11	1393	18	1.9328869113682
11	1514	19	2.0124225933837
11	1635	20	0.973
11	1756	21	0.973
11	1877	22	0.973
11	1998	23	0.973
11	2119	24	5.4473354853309
11	2240	25	6.4211615732401
11	2361	26	8.5321147306764
11	2482	27	5.2209588307075
11	2603	28	2.2241820967503
11	2724	29	1.9322502136755
11	2845	30	1.864840524435
11	2966	31	2.063508770949
11	3087	32	2.1930272554882
11	3208	33	2.0583770945503
11	3329	34	1.9140486542784
11	3450	35	2.0582845609101
11	3571	36	1.8304991453765
11	3692	37	2.2740464280712
11	3813	38	2.1157219232303
11	3934	39	1.9767827439579
11	4055	40	1.829049675948
11	4176	41	2.16562941896
11	4297	42	2.2339693632701
11	4418	43	2.0101377889403
11	4539	44	2.0704661136008
11	4660	45	1.7600592553205
11	4781	46	2.0953051519302
11	4902	47	1.9406393793715
11	5023	48	2.2805523114195
11	5144	49	1.7446896544633
11	5265	50	1.9854756757368
11	5386	51	2.1429910618791
11	5507	52	2.3218991112193
11	5628	53	1.7198589937695
11	5749	54	2.2035976560134
11	5870	55	2.0627273518964
11	5991	56	2.1577467267711
11	6112	57	1.9419782702369
11	6233	58	1.7040995130405
11	6354	59	2.4037578966905
11	6475	60	1.844036691971
11	6596	61	2.2391338552855
11	6717	62	1.9263242143621
11	6838	63	2.1729161205418
11	6959	64	1.7072187045484
11	7080	65	2.1308511894257
11	7201	66	1.8945145753267
11	7322	67	2.2181054901553
11	7443	68	2.074521260439
11	7564	69	1.8883527198739
11	7685	70	2.165951006859
11	7806	71	1.8980320385483
11	7927	72	2.0108907081915
11	8048	73	0.973
11	8170	74	0.973
11	8291	75	0.973
11	8412	76	0.973
11	8533	77	0.973
11	8654	78	0.973
11	8775	79	0.973
11	8896	80	0.973
11	9017	81	1.1113169233882
11	9138	82	1.1106747597969
11	9259	83	1.1102755900288
11	9380	84	1.1101045120053
11	9579	85	1.1100370642591
11	9973	86	1.1100133320597
11	23532	87	1.1100048250899
11	69465	88	1.1100016955966
11	104780	89	1.1100006052688
11	140033	90	0.973
11	175602	91	0.973
11	210864	92	0.973
11	246048	93	0.973
11	281463	94	0.973
11	317299	95	0.973
11	352614	96	0.973
11	388014	97	0.973
11	401963	98	0.973
11	402084	99	0.973
11	402205	100	0.973
11	402326	101	0.973
11	402447	102	0.973
11	402568	103	0.973
11	402689	104	0.973
11	402810	105	0.973
11	402931	106	0.973
11	403052	107	0.973
11	403173	108	0.973
11	403294	109	0.973
11	403415	110	0.973
11	403536	111	0.973
11	403657	112	0.973
11	403778	113	0.973
11	403899	114	0.973
11	404020	115	0.973
11	404141	116	0.973
11	404262	117	0.973
11	404383	118	0.973
11	404504	119	0.973
11	404625	120	0.973
11	404746	121	0.973
11	404867	122	0.973
11	404988	123	0.973
11	405110	124	1.4234290623218
11	405231	125	2.6567394131772
11	405352	126	3.4632410678813
11	405473	127	4.7668672765393
11	405594	128	5.7200955450344
11	405715	129	6.4069781060229
11	405836	130	8.0896239442592
11	405957	131	6.4010434846088
11	406078	132	2.2498502525032
11	406199	133	1.6531914326427
11	406320	134	2.4168814381087
11	406441	135	1.6096433994394
11	406562	136	2.428055322103
11	406683	137	1.8887766658781
11	406804	138	1.8592821107136
11	406925	139	2.3708110320751
11	407046	140	1.7909819863197
11	407167	141	2.012587579963
11	407288	142	2.3098627793734
11	407409	143	1.8560305862413
11	407530	144	2.0425314149554
11	407651	145	1.8312366950988
11	407772	146	2.2598369517886
11	407893	147	2.0161515128889
11	408014	148	1.8303730389514
11	408135	149	2.392908909824
11	408256	150	1.8063604716138
11	408377	151	1.9634504324478
11	408498	152	2.2352851613697
11	408619	153	1.9808793262319
11	408740	154	1.9634503304669
11	408861	155	1.9820465414792
11	408982	156	2.1254651424414
11	409103	157	2.0240534917561
11	409224	158	2.0815199268072
11	409345	159	1.8533209054349
11	409466	160	2.0988581029342
11	409587	161	2.0629615447531
11	409708	162	2.1335393639481
11	409829	163	1.9595924295527
11	409950	164	2.2063649601336
11	410071	165	2.0467036083631
11	410192	166	1.7124276389175
11	410313	167	2.032240670992
11	410434	168	2.2626547778292
11	410555	169	1.9379465276484
11	410676	170	2.010867192696
11	410797	171	2.2566679669249
11	410918	172	1.6382362526927
11	411039	173	2.3577711950933
11	411160	174	2.024056495486
11	411281	175	2.1115228782983
11	411402	176	2.0217633785918
11	411523	177	1.690541414868
11	411644	178	2.1349299297849
11	411765	179	1.9702079787062
11	411886	180	2.3302035558454
11	412007	181	2.0529153996258
11	412128	182	1.8064167126036
11	412249	183	1.8989217824591
11	412370	184	2.039394152796
11	412491	185	1.9989070202427
11	412612	186	2.003997456812
11	412733	187	2.2528205565755
11	412854	188	2.0024854598809
11	412975	189	1.840872948176
11	413096	190	2.1939651933567
11	413217	191	2.2160354842564
11	413338	192	1.6612160521488
11	413459	193	2.4521136028512
11	413580	194	2.0160810843555
11	413701	195	1.671739011277
11	413822	196	2.0929349479287
11	413943	197	2.2897829115011
11	414064	198	1.845539785965
11	414185	199	2.2811637074973
11	414306	200	1.9350191029182
12	184	6	3.4616585455444
12	245	7	5.314056270633
12	325	8	7.2878506183513
12	406	9	9.2202992598322
12	487	10	11.272821894901
12	587	11	13.124149588924
12	688	12	13.987373048679
12	789	13	13.9342990027
12	909	14	13.966025378916
12	1030	15	13.917221514769
12	1151	16	13.925836450513
12	1272	17	13.930988760646
12	1393	18	13.942629714631
12	1514	19	13.997423355954
12	1635	20	13.898770572464
12	1756	21	13.632147705457
12	1877	22	12.076428074088
12	1998	23	9.7846915131278
12	2119	24	10.117750493182
12	2240	25	6.4451376676957
12	2361	26	8.777532048831
12	2482	27	10.975030628222
12	2603	28	12.678498908871
12	2724	29	13.890930535088
12	2845	30	13.875450763288
12	2966	31	13.914747303301
12	3087	32	13.887046969056
12	3208	33	13.876417213378
12	3329	34	13.926770333524
12	3450	35	13.948160853945
12	3571	36	13.986614295798
12	3692	37	13.902846648321
12	3813	38	13.89239756926
12	3934	39	13.945607627723
12	4055	40	13.90238496786
12	4176	41	13.8943891274
12	4297	42	13.995577747549
12	4418	43	13.981304306723
12	4539	44	13.889175273133
12	4660	45	13.972242008243
12	4781	46	13.908103838712
12	4902	47	13.906537666784
12	5023	48	13.996166704185
12	5144	49	13.886470835633
12	5265	50	13.946141843742
12	5386	51	13.877574489091
12	5507	52	13.972185968615
12	5628	53	13.94504427311
12	5749	54	13.965731629799
12	5870	55	13.871087854428
12	5991	56	13.884280886145
12	6112	57	13.909052972731
12	6233	58	13.974088552413
12	6354	59	13.92781890474
12	6475	60	13.871840020602
12	6596	61	13.881755905158
12	6717	62	13.996387345891
12	6838	63	13.878949244565
12	6959	64	13.888252579984
12	7080	65	13.977314221875
12	7201	66	13.945700764337
12	7322	67	13.995339845465
12	7443	68	13.989036934255
12	7564	69	13.997907579555
12	7685	70	13.912958603851
12	7806	71	13.994730784865
12	7927	72	13.949254455173
12	8048	73	13.894539396982
12	8170	74	13.344716750274
12	8291	75	10.763541076501
12	8412	76	8.3631370038373
12	8533	77	6.2415116450094
12	8654	78	4.2155561131592
12	8775	79	2.5591902141722
12	8896	80	1.3425525207225
12	9017	81	0.61472730531401
12	9138	82	0.24550038275825
12	9259	83	0.094727460953968
12	9380	84	0.035947010279171
12	9579	85	0.013683262617011
12	9973	86	0.0052808933157601
12	23532	87	0.0020014696843765
12	69465	88	0.00075942259685797
12	104780	89	0.00028903819767502
12	140033	90	0.00010434762202658
12	175602	91	3.8055596729986e-05
12	210864	92	1.3276686135162e-05
12	246048	93	0
12	281463	94	0
12	317299	95	0
12	352614	96	0
12	388014	97	0
12	401963	98	0
12	402084	99	0
12	402205	100	0
12	402326	101	0
12	402447	102	0
12	402568	103	0
12	402689	104	0
12	402810	105	0
12	402931	106	0
12	403052	107	0
12	403173	108	0
12	403294	109	0
12	403415	110	0
12	403536	111	0
12	403657	112	0
12	403778	113	0
12	403899	114	0
12	404020	115	0
12	404141	116	0
12	404262	117	0
12	404383	118	0
12	404504	119	0
12	404625	120	0
12	404746	121	0
12	404867	122	0
12	404988	123	0
12	405110	124	0.29699343284261
12	405231	125	1.6603142291403
12	405352	126	3.409474345617
12	405473	127	5.4731164099115
12	405594	128	7.1755573046892
12	405715	129	9.0875503127799
12	405836	130	11.091269865554
12	405957	131	12.953332332748
12	406078	132	13.956573342038
12	406199	133	13.950365465668
12	406320	134	13.987641519217
12	406441	135	13.925280719134
12	406562	136	13.943084882149
12	406683	137	13.899759404154
12	406804	138	13.910187145649
12	406925	139	13.92527937796
12	407046	140	13.892249986657
12	407167	141	13.872878628264
12	407288	142	13.942859448416
12	407409	143	13.930176124065
12	407530	144	13.904288685103
12	407651	145	13.947520695382
12	407772	146	13.91186851619
12	407893	147	13.884419017115
12	408014	148	13.910779733292
12	408135	149	13.954587524948
12	408256	150	13.915731141893
12	408377	151	13.977620203889
12	408498	152	13.904844741318
12	408619	153	13.953517861669
12	408740	154	13.948664230278
12	408861	155	13.890329300698
12	408982	156	13.901576737601
12	409103	157	13.960920032556
12	409224	158	13.873268092917
12	409345	159	13.897905882034
12	409466	160	13.871426088007
12	409587	161	13.902359415628
12	409708	162	13.901665229683
12	409829	163	13.890332204215
12	409950	164	13.87730289405
12	410071	165	13.923202529061
12	410192	166	13.999889892975
12	410313	167	13.873588054108
12	410434	168	13.961176059896
12	410555	169	13.937183574808
12	410676	170	13.887638453764
12	410797	171	13.902596379949
12	410918	172	13.959892378727
12	411039	173	13.995819666104
12	411160	174	13.905849278762
12	411281	175	13.932192788983
12	411402	176	13.940266993192
12	411523	177	13.984519628591
12	411644	178	13.999702042846
12	411765	179	13.964638850316
12	411886	180	13.900635256902
12	412007	181	13.925972879333
12	412128	182	13.930902947583
12	412249	183	13.978870710894
12	412370	184	13.942439569917
12	412491	185	13.97258714041
12	412612	186	13.870789043959
12	412733	187	13.958896917864
12	412854	188	13.958709578416
12	412975	189	13.921796100594
12	413096	190	13.871822342889
12	413217	191	13.949765845318
12	413338	192	13.959529014912
12	413459	193	13.966299225593
12	413580	194	13.966381310457
12	413701	195	13.995864084309
12	413822	196	13.972179546747
12	413943	197	13.9647343656
12	414064	198	13.972160039819
12	414185	199	13.947741319139
12	414306	200	13.939983172731
13	245	7	2415.5255091987
13	325	8	2413.2787839702
13	406	9	2409.1630805873
13	487	10	2404.3463197631
13	587	11	2398.5547341793
13	688	12	2391.3407964634
13	789	13	2382.681323986
13	909	14	2372.9494974826
13	1030	15	2363.1615408992
13	1151	16	2353.3798614484
13	1272	17	2343.5756251765
13	1393	18	2335.2304396011
13	1514	19	2334.8767789165
13	1635	20	2345.3756297918
13	1756	21	2355.7253639563
13	1877	22	2367.7117710693
13	1998	23	2380.9680755943
13	2119	24	2393.2945487332
13	2240	25	2403.941363287
13	2361	26	2413.4553433224
13	2482	27	2421.9797803104
13	2603	28	2429.120599585
13	2724	29	2431.6157267895
13	2845	30	2433.2802118151
13	2966	31	2435.2332397836
13	3087	32	2437.3254621057
13	3208	33	2438.6840515978
13	3329	34	2439.5601232323
13	3450	35	2440.5728434784
13	3571	36	2441.5838716838
13	3692	37	2442.5944210311
13	3813	38	2443.6030551731
13	3934	39	2444.6155923648
13	4055	40	2445.6259086175
13	4176	41	2446.6366043197
13	4297	42	2447.6479125855
13	4418	43	2448.6588481168
13	4539	44	2449.6696057552
13	4660	45	2450.637849304
13	4781	46	2449.5239132296
13	4902	47	2448.4121675248
13	5023	48	2447.2988634286
13	5144	49	2446.1882144989
13	5265	50	2445.0765511893
13	5386	51	2443.9636967406
13	5507	52	2442.8522380446
13	5628	53	2441.7384164953
13	5749	54	2440.6265153898
13	5870	55	2439.6654342563
13	5991	56	2438.7237433189
13	6112	57	2437.7700052466
13	6233	58	2432.4767033909
13	6354	59	2421.8155448905
13	6475	60	2408.651604427
13	6596	61	2394.7259045097
13	6717	62	2380.8083598695
13	6838	63	2366.876433981
13	6959	64	2352.9504399361
13	7080	65	2339.0160324669
13	7201	66	2325.0829945125
13	7322	67	2311.1481251561
13	7443	68	2297.2334664124
13	7564	69	2283.2922524826
13	7685	70	2269.389759439
13	7806	71	2255.4304723713
13	7927	72	2241.571481659
13	8048	73	2227.7964160843
13	8170	74	2214.1080790017
13	8291	75	2200.8999761852
13	8412	76	2188.308226518
13	8533	77	2177.8108022829
13	8654	78	2170.0327298515
13	8775	79	2164.0172485863
13	8896	80	2159.605723714
13	9017	81	2156.6452647829
13	9138	82	2154.88176354
13	9259	83	2153.9672126984
13	9380	84	2153.5437058047
13	9579	85	2153.3704762236
13	9973	86	2153.2999756046
13	23532	87	2153.2719818669
13	69465	88	2153.2608478717
13	104780	89	2153.2564820766
13	140033	90	2153.2547618009
13	175602	91	2153.2540891353
13	210864	92	2153.2538262467
13	246048	93	2153.2537250387
13	281463	94	2153.2536882458
13	317299	95	2153.2536767471
13	352614	96	2153.2536758567
13	388014	97	2153.2536758567
13	401963	98	2153.2536758567
13	402084	99	2153.2536758567
13	402205	100	2153.2536758567
13	402326	101	2153.2536758567
13	402447	102	2153.2536758567
13	402568	103	2153.2536758567
13	402689	104	2153.2536758567
13	402810	105	2153.2536758567
13	402931	106	2153.2536758567
13	403052	107	2153.2536758567
13	403173	108	2153.2536758567
13	403294	109	2153.2536758567
13	403415	110	2153.2536758567
13	403536	111	2153.2536758567
13	403657	112	2153.2536758567
13	403778	113	2153.2536758567
13	403899	114	2153.2536758567
13	404020	115	2153.2536758567
13	404141	116	2153.2536758567
13	404262	117	2153.2536758567
13	404383	118	2153.2536758567
13	404504	119	2153.2536758567
13	404625	120	2153.2536758567
13	404746	121	2153.2536758567
13	404867	122	2153.2536758567
13	404988	123	2153.2536758567
13	405110	124	2153.2446682784
13	405231	125	2152.9413567504
13	405352	126	2151.6318278789
13	405473	127	2148.9509399397
13	405594	128	2144.6220174592
13	405715	129	2138.8476330783
13	405836	130	2132.6942520204
13	405957	131	2122.9517918442
13	406078	132	2114.4143978111
13	406199	133	2104.9243596757
13	406320	134	2095.4087411192
13	406441	135	2085.8931695785
13	406562	136	2076.3804864654
13	406683	137	2066.8634711187
13	406804	138	2057.3251290275
13	406925	139	2047.7869480893
13	407046	140	2037.9017797654
13	407167	141	2027.9183933027
13	407288	142	2017.9301535612
13	407409	143	2007.9337587123
13	407530	144	1997.9515588679
13	407651	145	1987.9406953885
13	407772	146	1977.9333604444
13	407893	147	1967.9477791101
13	408014	148	1957.9507310553
13	408135	149	1947.9573234068
13	408256	150	1937.9631809858
13	408377	151	1928.1664762902
13	408498	152	1918.4440370229
13	408619	153	1908.7158153545
13	408740	154	1898.9847523787
13	408861	155	1889.2510365846
13	408982	156	1879.5250593068
13	409103	157	1869.7946523797
13	409224	158	1860.066388561
13	409345	159	1850.3449809276
13	409466	160	1840.6165928817
13	409587	161	1830.748086529
13	409708	162	1820.6547021765
13	409829	163	1810.5420725994
13	409950	164	1800.530503092
13	410071	165	1790.5737255709
13	410192	166	1780.6218168195
13	410313	167	1770.6811904315
13	410434	168	1760.7506036004
13	410555	169	1750.7981115667
13	410676	170	1740.8503719098
13	410797	171	1730.8997753871
13	410918	172	1720.9540711369
13	411039	173	1710.9969278952
13	411160	174	1701.0471068366
13	411281	175	1691.103940046
13	411402	176	1681.154608109
13	411523	177	1671.1858494742
13	411644	178	1661.2489696345
13	411765	179	1651.2846350997
13	411886	180	1641.3230687403
13	412007	181	1631.3774789728
13	412128	182	1621.4392589681
13	412249	183	1611.6062957367
13	412370	184	1601.8193808206
13	412491	185	1592.0311505896
13	412612	186	1582.2222846993
13	412733	187	1572.4309790027
13	412854	188	1562.6281331312
13	412975	189	1552.4377240313
13	413096	190	1541.909864092
13	413217	191	1531.382153185
13	413338	192	1520.8542167911
13	413459	193	1510.3501546109
13	413580	194	1499.6186632243
13	413701	195	1488.2337184064
13	413822	196	1476.851269873
13	413943	197	1465.4666684809
13	414064	198	1454.0998576893
13	414185	199	1442.2743455621
13	414306	200	1429.7017127573
14	245	7	1578.2124504903
14	325	8	1579.0374362692
14	406	9	1580.5487010712
14	487	10	1584.4052725919
14	587	11	1590.2713509081
14	688	12	1597.5780759836
14	789	13	1606.3489286276
14	909	14	1616.2059281664
14	1030	15	1626.1197797433
14	1151	16	1636.02727345
14	1272	17	1645.9576141089
14	1393	18	1657.0198152391
14	1514	19	1670.6823148085
14	1635	20	1679.8003508439
14	1756	21	1689.1340003461
14	1877	22	1694.9767562766
14	1998	23	1696.8403873192
14	2119	24	1698.1415243894
14	2240	25	1699.1482518036
14	2361	26	1700.0478621488
14	2482	27	1700.8539045919
14	2603	28	1701.8278781297
14	2724	29	1710.4549733223
14	2845	30	1721.4081311403
14	2966	31	1734.2600482367
14	3087	32	1748.0279349582
14	3208	33	1761.8843053738
14	3329	34	1775.7948059933
14	3450	35	1789.7217064165
14	3571	36	1803.6253379416
14	3692	37	1817.5223842226
14	3813	38	1831.3930926556
14	3934	39	1845.3174757194
14	4055	40	1859.2113164924
14	4176	41	1873.1103754425
14	4297	42	1887.0178583525
14	4418	43	1900.9202154251
14	4539	44	1914.8201261219
14	4660	45	1928.7164694658
[...]
26	4539	44	1835.6043369714
26	4660	45	1849.4923872221
26	4781	46	1863.3820115495
26	4902	47	1877.2837957675
26	5023	48	1891.2102853972
26	5144	49	1905.1255467124
26	5265	50	1918.9993685549
26	5386	51	1932.8890656559
26	5507	52	1946.7700612806
26	5628	53	1960.6532362038
26	5749	54	1974.5480977157
26	5870	55	1988.4236091701
26	5991	56	2002.308265998
26	6112	57	2016.1884444943
26	6233	58	2030.0605177842
26	6354	59	2043.9466001065
26	6475	60	2057.8399883052
26	6596	61	2071.7555617867
26	6717	62	2085.6786326598
26	6838	63	2099.4727699291
26	6959	64	2111.2883736044
26	7080	65	2118.4314654833
26	7201	66	2120.8072397746
26	7322	67	2120.3368929485
26	7443	68	2119.8661597129
26	7564	69	2119.3953324538
26	7685	70	2118.9244601782
26	7806	71	2118.4543968458
26	7927	72	2117.9840043029
26	8048	73	2117.513284889
26	8170	74	2117.0431037126
26	8291	75	2116.5725737475
26	8412	76	2116.1026278688
26	8533	77	2115.6324172653
26	8654	78	2114.094631209
26	8775	79	2112.1401990829
26	8896	80	2109.0540286163
26	9017	81	2104.7828237899
26	9138	82	2101.213141921
26	9259	83	2098.3242870206
26	9380	84	2094.8512782315
26	9579	85	2092.2928886563
26	9973	86	2090.5788884182
26	23532	87	2089.5503899269
26	69465	88	2089.0210276851
26	104780	89	2088.7789271222
26	140033	90	2088.6786593953
26	175602	91	2088.6382678114
26	210864	92	2088.6219609268
26	246048	93	2088.6153624337
26	281463	94	2088.6126862392
26	317299	95	2088.6116270265
26	352614	96	2088.611198592
26	388014	97	2088.6110301912
26	401963	98	2088.610964057
26	402084	99	2088.6109398473
26	402205	100	2088.6109313145
26	402326	101	2088.6109313145
26	402447	102	2088.6109313145
26	402568	103	2088.6109313145
26	402689	104	2088.6109313145
26	402810	105	2088.6109313145
26	402931	106	2088.6109313145
26	403052	107	2088.6109313145
26	403173	108	2088.6109313145
26	403294	109	2088.6109313145
26	403415	110	2088.6109313145
26	403536	111	2088.6109313145
26	403657	112	2088.6109313145
26	403778	113	2088.6109313145
26	403899	114	2088.6109313145
26	404020	115	2088.6109313145
26	404141	116	2088.6109313145
26	404262	117	2088.6109313145
26	404383	118	2088.6109313145
26	404504	119	2088.6109313145
26	404625	120	2088.6109313145
26	404746	121	2088.6109313145
26	404867	122	2088.6109313145
26	404988	123	2088.6109313145
26	405110	124	2088.61089544
26	405231	125	2088.602650716
26	405352	126	2088.475811231
26	405473	127	2087.9301953269
26	405594	128	2086.6605022689
26	405715	129	2084.5379799651
26	405836	130	2081.6936224476
26	405957	131	2078.218546194
26	406078	132	2074.210484405
26	406199	133	2067.4462640658
26	406320	134	2059.2097449005
26	406441	135	2049.5508725103
26	406562	136	2039.3828195445
26	406683	137	2029.2167877834
26	406804	138	2019.0473057181
26	406925	139	2008.8789205914
26	407046	140	1998.7049968559
26	407167	141	1988.5283116484
26	407288	142	1978.3413544083
26	407409	143	1968.6273854505
26	407530	144	1958.9145176914
26	407651	145	1949.1951532634
26	407772	146	1939.4923123457
26	407893	147	1929.7768749688
26	408014	148	1920.0681876456
26	408135	149	1910.3566886298
26	408256	150	1900.6466041198
26	408377	151	1890.9423949756
26	408498	152	1881.2142186649
26	408619	153	1871.5113128563
26	408740	154	1861.5389241595
26	408861	155	1851.5657077897
26	408982	156	1841.6030414049
26	409103	157	1831.6276183352
26	409224	158	1821.6453637118
26	409345	159	1811.6678028302
26	409466	160	1801.6984250359
26	409587	161	1791.7232332788
26	409708	162	1781.7557412107
26	409829	163	1771.7849803967
26	409950	164	1762.0104605835
26	410071	165	1752.3965809792
26	410192	166	1742.8106708722
26	410313	167	1733.0775616718
26	410434	168	1723.3211428644
26	410555	169	1713.5562685551
26	410676	170	1703.8150026165
26	410797	171	1694.0603855103
26	410918	172	1684.29932597
26	411039	173	1674.5591932405
26	411160	174	1664.7989344988
26	411281	175	1655.0569839347
26	411402	176	1645.3101926092
26	411523	177	1635.5426824596
26	411644	178	1625.7853316721
26	411765	179	1616.0464510852
26	411886	180	1606.2860684087
26	412007	181	1596.5253756437
26	412128	182	1586.7800139729
26	412249	183	1577.0501434905
26	412370	184	1567.2985581346
26	412491	185	1557.5410301974
26	412612	186	1547.7844594009
26	412733	187	1537.8725258373
26	412854	188	1527.9609721182
26	412975	189	1518.0417956123
26	413096	190	1508.1272342978
26	413217	191	1498.2197430655
26	413338	192	1488.8905082867
26	413459	193	1479.7737016557
26	413580	194	1470.6493388684
26	413701	195	1461.5116486223
26	413822	196	1452.3812120464
26	413943	197	1443.7632192411
26	414064	198	1435.7269512704
26	414185	199	1427.6927732276
26	414306	200	1419.6605187366
27	909	14	4.1071135824344
27	1030	15	6.1728585640954
27	1151	16	8.1438460338659
27	1272	17	9.9450442699211
27	1393	18	11.990837080275
27	1514	19	13.719708770091
27	1635	20	13.919625025827
27	1756	21	13.895716073927
27	1877	22	13.903963834392
27	1998	23	13.894764900513
27	2119	24	13.915038120479
27	2240	25	13.961094655516
27	2361	26	13.850968166195
27	2482	27	13.456581960002
27	2603	28	13.190270247142
27	2724	29	12.980132059189
27	2845	30	11.265334070097
27	2966	31	8.8179873361738
27	3087	32	9.5872578970569
27	3208	33	6.6144176946757
27	3329	34	8.7264661690326
27	3450	35	10.591035087245
27	3571	36	12.575240329389
27	3692	37	13.992697958478
27	3813	38	13.936582251703
27	3934	39	13.977668084782
27	4055	40	13.944448827442
27	4176	41	13.904405599276
27	4297	42	13.904237307077
27	4418	43	13.870577735992
27	4539	44	13.91562686539
27	4660	45	13.935407415566
27	4781	46	13.895267462365
27	4902	47	13.964951610966
27	5023	48	13.981055697401
27	5144	49	13.949714473588
27	5265	50	13.9261804509
27	5386	51	13.91633811252
27	5507	52	13.95573048224
27	5628	53	13.921962985331
27	5749	54	13.967009024217
27	5870	55	13.89519388462
27	5991	56	13.943711719469
27	6112	57	13.917332074845
27	6233	58	13.883353462927
27	6354	59	13.960233263932
27	6475	60	13.871992917536
27	6596	61	13.97811899662
27	6717	62	13.946223240888
27	6838	63	13.919626660964
27	6959	64	13.941101441307
27	7080	65	13.925128551477
27	7201	66	13.938711764624
27	7322	67	13.967260484844
27	7443	68	13.906206586983
27	7564	69	13.993712532967
27	7685	70	13.989647400954
27	7806	71	13.874248495488
27	7927	72	13.990516319459
27	8048	73	13.875699244153
27	8170	74	13.878478112018
27	8291	75	13.977964019247
27	8412	76	13.973040370897
27	8533	77	13.899651392188
27	8654	78	13.878994455035
27	8775	79	13.959708831343
27	8896	80	13.920217335247
27	9017	81	12.340780083257
27	9138	82	10.155215415861
27	9259	83	8.0139675904335
27	9380	84	6.0828829461987
27	9579	85	4.219987638285
27	9973	86	2.6981672450591
27	23532	87	1.5265368203907
27	69465	88	0.72112454551461
27	104780	89	0.30887803314216
27	140033	90	0.12830028117472
27	175602	91	0.051501369840416
27	210864	92	0.020708430462675
27	246048	93	0.0081692768011338
27	281463	94	0.0034365002746371
27	317299	95	0.0013166235044275
27	352614	96	0.00053661693047566
27	388014	97	0.00020954971980426
27	401963	98	7.9733295912899e-05
27	402084	99	2.8265895797446e-05
27	402205	100	1.0204322452046e-05
27	402326	101	0
27	402447	102	0
27	402568	103	0
27	402689	104	0
27	402810	105	0
27	402931	106	0
27	403052	107	0
27	403173	108	0
27	403294	109	0
27	403415	110	0
27	403536	111	0
27	403657	112	0
27	403778	113	0
27	403899	114	0
27	404020	115	0
27	404141	116	0
27	404262	117	0
27	404383	118	0
27	404504	119	0
27	404625	120	0
27	404746	121	0
27	404867	122	0
27	404988	123	0
27	405110	124	0.00041170118408123
27	405231	125	0.0512200276529
27	405352	126	0.51357136609319
27	405473	127	1.6803020387727
27	405594	128	3.3010489811456
27	405715	129	4.9417330938807
27	405836	130	5.9963381071248
27	405957	131	6.596706805256
27	406078	132	8.3687648710103
27	406199	133	10.235671336235
27	406320	134	12.174934166596
27	406441	135	13.912176871002
27	406562	136	13.920685113647
27	406683	137	13.946317729997
27	406804	138	13.907268285605
27	406925	139	13.886228785291
27	407046	140	13.903289884047
27	407167	141	13.918361302156
27	407288	142	13.909512676056
27	407409	143	13.87055117632
27	407530	144	13.971722894192
27	407651	145	13.980069427199
27	407772	146	13.990667269889
27	407893	147	13.981789327492
27	408014	148	13.962827724591
27	408135	149	13.911722275096
27	408256	150	13.871218099226
27	408377	151	13.939443652187
27	408498	152	13.981993828856
27	408619	153	13.917614203901
27	408740	154	13.908477979472
27	408861	155	13.889180129995
27	408982	156	13.87534674827
27	409103	157	13.904865517656
27	409224	158	13.903444599784
27	409345	159	13.998967196981
27	409466	160	13.924771806151
27	409587	161	13.893096707743
27	409708	162	13.973725439399
27	409829	163	13.871278848583
27	409950	164	13.942092469151
27	410071	165	13.918288855918
27	410192	166	13.917065973321
27	410313	167	13.963919939788
27	410434	168	13.994183698355
27	410555	169	13.992486476924
27	410676	170	13.984982499401
27	410797	171	13.957697272392
27	410918	172	13.906188420744
27	411039	173	13.878059800493
27	411160	174	13.930773664641
27	411281	175	13.993389312066
27	411402	176	13.920328719248
27	411523	177	13.962241288945
27	411644	178	13.898379829049
27	411765	179	13.881623839498
27	411886	180	13.905303521531
27	412007	181	13.916505727321
27	412128	182	13.902902713525
27	412249	183	13.880782265211
27	412370	184	13.98166323534
27	412491	185	13.971667353138
27	412612	186	13.953966123939
27	412733	187	13.945581571984
27	412854	188	13.954284431802
27	412975	189	13.987832484406
27	413096	190	13.882177825021
27	413217	191	13.895434832298
27	413338	192	13.989102778591
27	413459	193	13.946632878154
27	413580	194	13.948313778332
27	413701	195	13.956157674391
27	413822	196	13.944249873322
27	413943	197	13.977951452918
27	414064	198	13.991323246802
27	414185	199	13.997056827773
27	414306	200	13.873640474502
28	1030	15	2.065744981661
28	1151	16	1.9709874697705
28	1272	17	1.8011982360552
28	1393	18	2.0457928103534
28	1514	19	1.728871689816
28	1635	20	0.19991625573645
28	1756	21	-0.023908951899504
28	1877	22	0.0082477604644389
28	1998	23	-0.0091989338793805
28	2119	24	0.020273219966331
28	2240	25	0.046056535036769
28	2361	26	-0.11012648932112
28	2482	27	-0.39438620619297
28	2603	28	-0.26631171285926
28	2724	29	-0.21013818795369
28	2845	30	-1.7147979890913
28	2966	31	-2.4473467339234
28	3087	32	0.76927056088311
28	3208	33	-2.9728402023813
28	3329	34	2.112048474357
28	3450	35	1.8645689182123
28	3571	36	1.9842052421439
28	3692	37	1.4174576290893
28	3813	38	-0.056115706774872
28	3934	39	0.041085833078251
28	4055	40	-0.03321925733937
28	4176	41	-0.040043228166178
28	4297	42	-0.00016829219879533
28	4418	43	-0.033659571085591
28	4539	44	0.04504912939854
28	4660	45	0.019780550175346
28	4781	46	-0.040139953200706
28	4902	47	0.069684148600791
28	5023	48	0.016104086434934
28	5144	49	-0.031341223812197
28	5265	50	-0.0235340226884
28	5386	51	-0.0098423383804036
28	5507	52	0.039392369720154
28	5628	53	-0.033767496908549
28	5749	54	0.045046038886065
28	5870	55	-0.071815139597748
28	5991	56	0.048517834849191
28	6112	57	-0.026379644623958
28	6233	58	-0.0339786119177
28	6354	59	0.076879801005125
28	6475	60	-0.088240346396342
28	6596	61	0.10612607908435
28	6717	62	-0.031895755731966
28	6838	63	-0.026596579924226
28	6959	64	0.02147478034254
28	7080	65	-0.015972889829426
28	7201	66	0.013583213146775
28	7322	67	0.02854872022057
28	7443	68	-0.061053897861857
28	7564	69	0.08750594598474
28	7685	70	-0.0040651320130571
28	7806	71	-0.11539890546585
28	7927	72	0.11626782397041
28	8048	73	-0.11481707530562
28	8170	74	0.0027788678649827
28	8291	75	0.099485907228663
28	8412	76	-0.0049236483499406
28	8533	77	-0.073388978708536
28	8654	78	-0.020656937153545
28	8775	79	0.080714376308025
28	8896	80	-0.039491496095435
28	9017	81	-1.5794372519905
28	9138	82	-2.1855646673956
28	9259	83	-2.1412478254279
28	9380	84	-1.9310846442348
28	9579	85	-1.8628953079137
28	9973	86	-1.5218203932259
28	23532	87	-1.1716304246684
28	69465	88	-0.80541227487607
28	104780	89	-0.41224651237244
28	140033	90	-0.18057775196744
28	175602	91	-0.076798911334308
28	210864	92	-0.030792939377741
28	246048	93	-0.012539153661541
28	281463	94	-0.0047327765264967
28	317299	95	-0.0021198767702096
28	352614	96	-0.00078000657395186
28	388014	97	-0.0003270672106714
28	401963	98	-0.00012981642389136
28	402084	99	-5.1467400115453e-05
28	402205	100	-1.80615733454e-05
28	402326	101	-1.0204322452046e-05
28	402447	102	0
28	402568	103	0
28	402689	104	0
28	402810	105	0
28	402931	106	0
28	403052	107	0
28	403173	108	0
28	403294	109	0
28	403415	110	0
28	403536	111	0
28	403657	112	0
28	403778	113	0
28	403899	114	0
28	404020	115	0
28	404141	116	0
28	404262	117	0
28	404383	118	0
28	404504	119	0
28	404625	120	0
28	404746	121	0
28	404867	122	0
28	404988	123	0
28	405110	124	0.00041170118408123
28	405231	125	0.050808326468819
28	405352	126	0.46235133844029
28	405473	127	1.1667306726795
28	405594	128	1.6207469423729
28	405715	129	1.6406841127351
28	405836	130	1.0546050132441
28	405957	131	0.60036869813116
28	406078	132	1.7720580657543
28	406199	133	1.8669064652245
28	406320	134	1.9392628303613
28	406441	135	1.7372427044057
28	406562	136	0.0085082426457657
28	406683	137	0.02563261634903
28	406804	138	-0.039049444391857
28	406925	139	-0.021039500313346
28	407046	140	0.017061098755804
28	407167	141	0.015071418108418
28	407288	142	-0.008848626099061
28	407409	143	-0.038961499736178
28	407530	144	0.10117171787191
28	407651	145	0.0083465330069874
28	407772	146	0.010597842689604
28	407893	147	-0.0088779423967935
28	408014	148	-0.018961602901108
28	408135	149	-0.051105449495372
28	408256	150	-0.040504175869282
28	408377	151	0.068225552961231
28	408498	152	0.042550176668446
28	408619	153	-0.06437962495489
28	408740	154	-0.0091362244286568
28	408861	155	-0.019297849477734
28	408982	156	-0.013833381724544
28	409103	157	0.029518769385758
28	409224	158	-0.001420917871874
28	409345	159	0.095522597196977
28	409466	160	-0.074195390830281
28	409587	161	-0.031675098408014
28	409708	162	0.080628731655889
28	409829	163	-0.10244659081567
28	409950	164	0.070813620567787
28	410071	165	-0.023803613232449
28	410192	166	-0.0012228825967746
28	410313	167	0.04685396646615
28	410434	168	0.030263758567163
28	410555	169	-0.0016972214309501
28	410676	170	-0.0075039775227204
28	410797	171	-0.02728522700956
28	410918	172	-0.051508851647377
28	411039	173	-0.028128620251081
28	411160	174	0.052713864147663
28	411281	175	0.062615647425408
28	411402	176	-0.073060592818074
28	411523	177	0.041912569697015
28	411644	178	-0.063861459896433
28	411765	179	-0.016755989550148
28	411886	180	0.023679682032672
28	412007	181	0.011202205789742
28	412128	182	-0.013603013795802
28	412249	183	-0.022120448313652
28	412370	184	0.10088097012835
28	412491	185	-0.0099958822014745
28	412612	186	-0.017701229199302
28	412733	187	-0.0083845519553858
28	412854	188	0.008702859818003
28	412975	189	0.03354805260431
28	413096	190	-0.10565465938533
28	413217	191	0.01325700727757
28	413338	192	0.093667946292554
28	413459	193	-0.0424699004367
28	413580	194	0.0016809001774529
28	413701	195	0.0078438960597857
28	413822	196	-0.01190780106932
28	413943	197	0.033701579596382
28	414064	198	0.013371793883852
28	414185	199	0.0057335809711372
28	414306	200	-0.12341635327088
29	1030	15	4.5026312293552
29	1151	16	5.4211464857185
29	1272	17	5.9976452288533
29	1393	18	7.7596184513418
29	1514	19	7.7268315802883
29	1635	20	2.7012744993685
29	1756	21	1.9481265904169
29	1877	22	2.0566710487361
29	1998	23	1.9972938206164
29	2119	24	2.0981487439708
29	2240	25	2.1898263437766
29	2361	26	1.656037594447
29	2482	27	0.973
29	2603	28	1.1117312632335
29	2724	29	1.2808320898995
29	2845	30	0.973
29	2966	31	0.973
29	3087	32	3.4313172861748
29	3208	33	0.973
29	3329	34	6.03415676873
29	3450	35	6.4898566090354
29	3571	36	7.9137325716312
29	3692	37	6.8181065750216
29	3813	38	1.8438824401449
29	3934	39	2.1749617238466
29	4055	40	1.9215253030621
29	4176	41	1.8948956506292
29	4297	42	2.0284979073209
29	4418	43	1.9131215207367
29	4539	44	2.1813017427389
29	4660	45	2.0986709290243
29	4781	46	1.8937298096107
29	4902	47	2.2697836076626
29	5023	48	2.0911677971369
29	5144	49	1.928334752794
29	5265	50	1.9523127992135
29	5386	51	1.9972848847099
29	5507	52	2.1668045947882
29	5628	53	1.9175713775484
29	5749	54	2.1870955340649
29	5870	55	1.7876510165595
29	5991	56	2.1961280730621
29	6112	57	1.9419164280388
29	6233	58	1.9132485289613
29	6354	59	2.2934309978172
29	6475	60	1.7307820381704
29	6596	61	2.3941151681897
29	6717	62	1.926140669444
29	6838	63	1.9414079852085
29	6959	64	2.1049716069865
29	7080	65	1.9775863180264
29	7201	66	2.0782056834174
29	7322	67	2.1315922037348
29	7443	68	1.8246465886349
29	7564	69	2.3333154309031
29	7685	70	2.0240806995056
29	7806	71	1.6401532819057
29	7927	72	2.4298972610548
29	8048	73	1.642205986124
29	8170	74	2.0357361571706
29	8291	75	2.3717266604541
29	8412	76	2.0195051189486
29	8533	77	1.7827554185113
29	8654	78	1.9574000114086
29	8775	79	2.3062682812988
29	8896	80	1.8982049033782
29	9017	81	0.973
29	9138	82	0.973
29	9259	83	0.973
29	9380	84	0.973
29	9579	85	0.973
29	9973	86	0.973
29	23532	87	0.973
29	69465	88	0.973
29	104780	89	0.973
29	140033	90	0.973
29	175602	91	1.1115312236585
29	210864	92	1.1108452962059
29	246048	93	1.1103693989313
29	281463	94	1.1101618571077
29	317299	95	1.1100628412679
29	352614	96	1.1100257855266
29	388014	97	1.1100100921611
29	401963	98	1.1100038438397
29	402084	99	1.1100013631962
29	402205	100	1.1100004922121
29	402326	101	0.973
29	402447	102	0.973
29	402568	103	0.973
29	402689	104	0.973
29	402810	105	0.973
29	402931	106	0.973
29	403052	107	0.973
29	403173	108	0.973
29	403294	109	0.973
29	403415	110	0.973
29	403536	111	0.973
29	403657	112	0.973
29	403778	113	0.973
29	403899	114	0.973
29	404020	115	0.973
29	404141	116	0.973
29	404262	117	0.973
29	404383	118	0.973
29	404504	119	0.973
29	404625	120	0.973
29	404746	121	0.973
29	404867	122	0.973
29	404988	123	0.973
29	405110	124	1.1100199013141
29	405231	125	1.1130980458841
29	405352	126	1.1920127445417
29	405473	127	1.6639668759467
29	405594	128	2.5619553648299
29	405715	129	3.3135228905875
29	405836	130	2.9432088194121
29	405957	131	2.4092139215859
29	406078	132	5.1418689088932
29	406199	133	6.3081129945153
29	406320	134	7.5541387577636
29	406441	135	7.8545579693848
29	406562	136	2.0592817470724
29	406683	137	2.1195060527687
29	406804	138	1.8984903504665
29	406925	139	1.9568190998134
29	407046	140	2.0861318815672
29	407167	141	2.081055125888
29	407288	142	1.9999367786217
29	407409	143	1.895395736697
29	407530	144	2.3766145943223
29	407651	145	2.0649262436681
29	407772	146	2.0736241158516
29	407893	147	2.0070660540894
29	408014	148	1.971234079564
29	408135	149	1.8584816416179
29	408256	150	1.8903000980592
29	408377	151	2.2618485954085
29	408498	152	2.180381863294
29	408619	153	1.8144859441695
29	408740	154	1.9988695829552
29	408861	155	1.9629340744352
29	408982	156	1.979865214639
29	409103	157	2.1280453449924
29	409224	158	2.0242200192391
29	409345	159	2.3610111946796
29	409466	160	1.7821641664005
29	409587	161	1.9218722888321
29	409708	162	2.3076864224774
29	409829	163	1.6832335320424
29	409950	164	2.2708586145181
29	410071	165	1.9506486648994
29	410192	166	2.0262671035506
29	410313	167	2.192830239948
29	410434	168	2.1403187649743
29	410555	169	2.0323539360937
29	410676	170	2.0120170832303
29	410797	171	1.9427338825119
29	410918	172	1.8566341918897
29	411039	173	1.932319800554
29	411160	174	2.2087435645393
29	411281	175	2.2493352688308
29	411402	176	1.7855976184342
29	411523	177	2.1760122981099
29	411644	178	1.8145610063292
29	411765	179	1.9707046646993
29	411886	180	2.1085252386516
29	412007	181	2.0678824003074
29	412128	182	1.9833477101812
29	412249	183	1.9526769697539
29	412370	184	2.3768949385179
29	412491	185	2.002287144453
29	412612	186	1.9746071144906
29	412733	187	2.0050985177768
29	412854	188	2.0634347792941
29	412975	189	2.1506930895379
29	413096	190	1.6733389166542
29	413217	191	2.0725609506509
29	413338	192	2.3535201587759
29	413459	193	1.8906381974258
29	413580	194	2.039207542375
29	413701	195	2.0607411079142
29	413822	196	1.9931250945164
29	413943	197	2.1501183092633
29	414064	198	2.0830465323672
29	414185	199	2.0578868675111
29	414306	200	1.6133017094412

