version 3
run Default-0-20230408-17:38:17-11383
attr configname Default
attr datetime 20230408-17:38:17
attr datetimef 20230408-173817
attr experiment Default
attr inifile omnetpp_savs.ini
attr iterationvars ""
attr iterationvarsd ""
attr iterationvarsf ""
attr measurement ""
attr network SingleAttackerV2VScenario
attr processid 11383
attr repetition 0
attr replication #0
attr resultdir results
attr runnumber 0
attr seedset 0
config image-path ../../../images
config cmdenv-express-mode true
config cmdenv-autoflush true
config cmdenv-status-frequency 1s
config **.cmdenv-log-level info
config image-path ../../images
config network SingleAttackerV2VScenario
config debug-on-errors true
config print-undisposed true
config sim-time-limit 200s
config **.scalar-recording true
config **.vector-recording true
config *.playgroundSizeX 2500m
config *.playgroundSizeY 2500m
config *.playgroundSizeZ 50m
config *.annotations.draw true
config *.obstacles.obstacles "xmldoc(\"config.xml\", \"//AnalogueModel[@type='SimpleObstacleShadowing']/obstacles\")"
config *.manager.updateInterval 1s
config *.manager.host "\"localhost\""
config *.manager.port 9999
config *.manager.autoShutdown true
config *.manager.launchConfig "xmldoc(\"erlangen.launchd.xml\")"
config *.connectionManager.sendDirect true
config *.connectionManager.maxInterfDist 2600m
config *.connectionManager.drawMaxIntfDist false
config *.**.nic.mac1609_4.useServiceChannel false
config *.**.nic.mac1609_4.txPower 20mW
config *.**.nic.mac1609_4.bitrate 6Mbps
config *.**.nic.phy80211p.minPowerLevel -110dBm
config *.**.nic.phy80211p.useNoiseFloor true
config *.**.nic.phy80211p.noiseFloor -98dBm
config *.**.nic.phy80211p.decider "xmldoc(\"config.xml\")"
config *.**.nic.phy80211p.analogueModels "xmldoc(\"config.xml\")"
config *.**.nic.phy80211p.usePropagationDelay true
config *.**.nic.phy80211p.antenna "xmldoc(\"antenna.xml\", \"/root/Antenna[@id='monopole']\")"
config *.node[*].nic.phy80211p.antennaOffsetY "0 m"
config *.node[*].nic.phy80211p.antennaOffsetZ "1.895 m"
config *.attacker[*].nic.phy80211p.antennaOffsetY "0 m"
config *.attacker[*].nic.phy80211p.antennaOffsetZ "1.895 m"
config *.manager.moduleType "\"vtype1=org.car2x.veins.nodes.Car *=org.car2x.veins.nodes.Car\""
config *.manager.moduleName "\"vtype1=attacker *=node\""
config *.node[*].applType "\"TraCIDemo11p\""
config *.node[*].appl.headerLength "80 bit"
config *.node[*].appl.sendBeacons false
config *.node[*].appl.dataOnSch false
config *.node[*].appl.beaconInterval 1s
config *.attacker[*].applType "\"TraCIV2Vp\""
config *.attacker[*].appl.headerLength "80 bit"
config *.attacker[*].appl.sendBeacons false
config *.attacker[*].appl.dataOnSch false
config *.attacker[*].appl.beaconInterval 1s
config *.node[*].veinsmobility.x 0
config *.node[*].veinsmobility.y 0
config *.node[*].veinsmobility.z 0
config *.node[*].veinsmobility.setHostSpeed false
config *.node[*0].veinsmobility.accidentCount 1
config *.node[*0].veinsmobility.accidentStart 73s
config *.node[*0].veinsmobility.accidentDuration 50s
config *.attacker[*].veinsmobility.x 0
config *.attacker[*].veinsmobility.y 0
config *.attacker[*].veinsmobility.z 0
config *.attacker[*].veinsmobility.setHostSpeed false

vector 0 SingleAttackerV2VScenario.node[0].veinsmobility posx ETV
vector 1 SingleAttackerV2VScenario.node[0].veinsmobility posy ETV
vector 2 SingleAttackerV2VScenario.node[0].veinsmobility speed ETV
vector 3 SingleAttackerV2VScenario.attacker[1].veinsmobility posx ETV
vector 4 SingleAttackerV2VScenario.attacker[1].veinsmobility posy ETV
vector 5 SingleAttackerV2VScenario.node[0].veinsmobility acceleration ETV
vector 6 SingleAttackerV2VScenario.node[0].veinsmobility co2emission ETV
vector 7 SingleAttackerV2VScenario.attacker[1].veinsmobility speed ETV
vector 8 SingleAttackerV2VScenario.node[2].veinsmobility posx ETV
vector 9 SingleAttackerV2VScenario.node[2].veinsmobility posy ETV
vector 10 SingleAttackerV2VScenario.attacker[1].veinsmobility acceleration ETV
vector 11 SingleAttackerV2VScenario.attacker[1].veinsmobility co2emission ETV
vector 12 SingleAttackerV2VScenario.node[2].veinsmobility speed ETV
vector 13 SingleAttackerV2VScenario.node[3].veinsmobility posx ETV
vector 14 SingleAttackerV2VScenario.node[3].veinsmobility posy ETV
vector 15 SingleAttackerV2VScenario.node[2].veinsmobility acceleration ETV
vector 16 SingleAttackerV2VScenario.node[2].veinsmobility co2emission ETV
vector 17 SingleAttackerV2VScenario.node[3].veinsmobility speed ETV
vector 18 SingleAttackerV2VScenario.node[3].veinsmobility acceleration ETV
vector 19 SingleAttackerV2VScenario.node[3].veinsmobility co2emission ETV
vector 20 SingleAttackerV2VScenario.node[4].veinsmobility posx ETV
vector 21 SingleAttackerV2VScenario.node[4].veinsmobility posy ETV
vector 22 SingleAttackerV2VScenario.node[4].veinsmobility speed ETV
vector 23 SingleAttackerV2VScenario.node[4].veinsmobility acceleration ETV
vector 24 SingleAttackerV2VScenario.node[4].veinsmobility co2emission ETV
vector 25 SingleAttackerV2VScenario.node[5].veinsmobility posx ETV
vector 26 SingleAttackerV2VScenario.node[5].veinsmobility posy ETV
vector 27 SingleAttackerV2VScenario.node[5].veinsmobility speed ETV
vector 28 SingleAttackerV2VScenario.node[5].veinsmobility acceleration ETV
vector 29 SingleAttackerV2VScenario.node[5].veinsmobility co2emission ETV
0	2	1	2414.8476884116
0	3	2	2411.8243290941
0	4	3	2407.1453205772
0	5	4	2402.1930488878
0	6	5	2395.839522927
0	7	6	2388.2506760134
0	8	7	2379.4243412665
0	9	8	2369.6604385128
0	10	9	2359.8701764394
0	11	10	2350.0723518046
0	12	11	2340.629824998
0	13	12	2334.4636372632
0	14	13	2338.1459428046
0	15	14	2348.7941947153
0	16	15	2359.1405653016
0	17	16	2372.2667729018
0	18	17	2386.0703161748
0	19	18	2399.9601965047
0	20	19	2412.9391687684
0	21	20	2421.7328009991
0	22	21	2429.077861033
0	23	22	2431.66312744
0	24	23	2433.425458397
0	25	24	2435.4578510093
0	26	25	2437.5543549481
0	27	26	2438.7685878807
0	28	27	2439.6711595674
0	29	28	2440.6821786718
0	30	29	2441.6934565906
0	31	30	2442.7035483266
0	32	31	2443.7151645229
0	33	32	2444.7267613162
0	34	33	2445.7381065168
0	35	34	2446.7475117873
0	36	35	2447.7583601607
0	37	36	2448.7687131548
0	38	37	2449.7780613484
0	39	38	2450.5186212618
0	40	39	2449.4064683748
0	41	40	2448.2938287364
0	42	41	2447.1821429513
0	43	42	2446.0681631687
0	44	43	2444.9540984653
0	45	44	2443.8417440719
0	46	45	2442.7289615242
0	47	46	2441.6161918183
0	48	47	2440.5033123675
0	49	48	2439.5601611177
0	50	49	2438.6526804585
0	51	50	2437.4905174404
0	52	51	2431.5360823517
0	53	52	2420.4888306081
0	54	53	2407.1907762273
0	55	54	2393.250349457
0	56	55	2379.3101575203
0	57	56	2365.3824681585
0	58	57	2351.4700129816
0	59	58	2337.5538924688
0	60	59	2323.625079949
0	61	60	2309.7106641812
0	62	61	2295.7980211971
0	63	62	2281.8600247749
0	64	63	2267.9246355455
0	65	64	2253.9836826271
0	66	65	2240.1158824177
0	67	66	2226.2984351168
0	68	67	2212.6673052539
0	69	68	2199.4939401426
0	70	69	2186.3021092681
0	71	70	2173.5708171563
0	72	71	2161.5547840521
0	73	72	2150.7466531842
0	74	73	2143.6967214971
0	76	74	2140.5210832088
0	77	75	2140.3245905411
0	78	76	2140.3245905411
0	79	77	2140.3245905411
0	80	78	2140.3245905411
0	81	79	2140.3245905411
0	82	80	2140.3245905411
0	83	81	2140.3245905411
0	84	82	2140.3245905411
0	85	83	2140.3245905411
0	86	84	2140.3245905411
0	125	85	2140.3245905411
0	126	86	2140.3245905411
0	138224	87	2140.3245905411
0	257476	88	2140.3245905411
0	376543	89	2140.3245905411
0	390258	90	2140.3245905411
0	390259	91	2140.3245905411
0	390260	92	2140.3245905411
0	390261	93	2140.3245905411
0	390262	94	2140.3245905411
0	390263	95	2140.3245905411
0	390264	96	2140.3245905411
0	390265	97	2140.3245905411
0	390266	98	2140.3245905411
0	390267	99	2140.3245905411
0	390268	100	2140.3245905411
0	390269	101	2140.3245905411
0	390270	102	2140.3245905411
0	390271	103	2140.3245905411
0	390272	104	2140.3245905411
0	390273	105	2140.3245905411
0	390274	106	2140.3245905411
0	390275	107	2140.3245905411
0	390276	108	2140.3245905411
0	390277	109	2140.3245905411
0	390278	110	2140.3245905411
0	390279	111	2140.3245905411
0	390280	112	2140.3245905411
0	390281	113	2140.3245905411
0	390282	114	2140.3245905411
0	390283	115	2140.3245905411
0	390284	116	2140.3245905411
0	390285	117	2140.3245905411
0	390286	118	2140.3245905411
0	390287	119	2140.3245905411
0	390288	120	2140.3245905411
0	390289	121	2140.3245905411
0	390290	122	2140.3245905411
0	390291	123	2140.3245905411
0	390293	124	2139.3002093873
0	390294	125	2136.7418826451
0	390295	126	2133.0446375553
0	390296	127	2128.0134040526
0	390297	128	2121.678543861
0	390298	129	2113.9062201346
0	390299	130	2104.7983675915
0	390300	131	2095.2758476973
0	390301	132	2085.7346638492
0	390302	133	2076.2163510829
0	390303	134	2066.6959855405
0	390304	135	2057.1643143392
0	390305	136	2047.6138038804
0	390306	137	2037.6185130619
0	390307	138	2027.6281643477
0	390308	139	2017.6261540744
0	390309	140	2007.6398296256
0	390310	141	1997.6390349671
0	390311	142	1987.6447169067
0	390312	143	1977.6540568558
0	390313	144	1967.6434443881
0	390314	145	1957.6377094393
0	390315	146	1947.6416607932
0	390316	147	1937.6466839015
0	390317	148	1927.9113812547
0	390318	149	1918.171095215
0	390319	150	1908.4434931603
0	390320	151	1898.7088140848
0	390321	152	1888.9761249188
0	390322	153	1879.2439420642
0	390323	154	1869.5174918326
0	390324	155	1859.789364465
0	390325	156	1850.0693605874
0	390326	157	1840.3335374044
0	390327	158	1830.3723059995
0	390328	159	1820.2764077998
0	390329	160	1810.1708822323
0	390330	161	1800.2048776624
0	390331	162	1790.2567952404
0	390332	163	1780.2943087248
0	390333	164	1770.3596564553
0	390334	165	1760.4014419809
0	390335	166	1750.4460395881
0	390336	167	1740.4984584115
0	390337	168	1730.5652979113
0	390338	169	1720.6095911446
0	390339	170	1710.6545015409
0	390340	171	1700.6998512637
0	390341	172	1690.7530496639
0	390342	173	1680.7942212113
0	390343	174	1670.8482340937
0	390344	175	1660.8893274677
0	390345	176	1650.9265017561
0	390346	177	1640.979149148
0	390347	178	1631.0218716075
0	390348	179	1621.0586092037
0	390349	180	1611.2672606088
0	390350	181	1601.4563999546
0	390351	182	1591.6341842351
0	390352	183	1581.8108284181
0	390353	184	1571.990080028
0	390354	185	1562.1866262286
0	390355	186	1551.7712799978
0	390356	187	1541.2150579111
0	390357	188	1530.6821054282
0	390358	189	1520.1398688291
0	390359	190	1509.5889093985
0	390360	191	1498.5695398597
0	390361	192	1487.1786035979
0	390362	193	1475.78566387
0	390363	194	1464.3722205419
0	390364	195	1452.9699666353
0	390365	196	1440.8059454396
0	390366	197	1428.1976923343
0	390367	198	1415.559245725
0	390368	199	1402.9274262817
0	390369	200	1389.6724301211
1	2	1	1578.4613427464
1	3	2	1579.5715045081
1	4	3	1581.5702703726
1	5	4	1586.5862393426
1	6	5	1593.0214858446
1	7	6	1600.7079422874
1	8	7	1609.647803423
1	9	8	1619.5372917838
1	10	9	1629.4534785049
1	11	10	1639.3773250589
1	12	11	1649.5882006837
1	13	12	1661.637796483
1	14	13	1673.9472733997
1	15	14	1682.8832983179
1	16	15	1692.2139144605
1	17	16	1695.6575851934
1	18	17	1697.4476678129
1	19	18	1698.7718058983
1	20	19	1699.9990543984
1	21	20	1700.8305510487
1	22	21	1701.8068650085
1	23	22	1710.7668937054
1	24	23	1722.3639275022
1	25	24	1735.7381043117
1	26	25	1749.5341662476
1	27	26	1763.4086002223
1	28	27	1777.321774561
1	29	28	1791.2252809294
1	30	29	1805.1323465062
1	31	30	1819.0230997317
1	32	31	1832.9348172899
1	33	32	1846.8462680206
1	34	33	1860.7542588552
1	35	34	1874.6355718272
1	36	35	1888.536730309
1	37	36	1902.4310763469
1	38	37	1916.3116043974
1	39	38	1930.2045903346
1	40	39	1944.0857032873
1	41	40	1957.97289153
1	42	41	1971.8481744444
1	43	42	1985.7520894269
1	44	43	1999.6570643336
1	45	44	2013.5406923471
1	46	45	2027.4296642831
1	47	46	2041.3184759384
1	48	47	2055.2086573513
1	49	48	2069.1358612897
1	50	49	2083.016957284
1	51	50	2096.8502575662
1	52	51	2109.1947352802
1	53	52	2117.3220580574
1	54	53	2120.8990969192
1	55	54	2120.4282470616
1	56	55	2119.957405136
1	57	56	2119.4869854953
1	58	57	2119.017080402
1	59	58	2118.5470515089
1	60	59	2118.0765939327
1	61	60	2117.6066226186
1	62	61	2117.1367111821
1	63	62	2116.6659434121
1	64	63	2116.1952637015
1	65	64	2115.7243960723
1	66	65	2114.4755642908
1	67	66	2112.5161434663
1	68	67	2109.9195305128
1	69	68	2105.4517384293
1	70	69	2100.9776836196
1	71	70	2095.497212626
1	72	71	2088.4235636648
1	73	72	2082.0609876774
1	74	73	2077.9108042074
1	76	74	2076.0413560895
1	77	75	2075.9256839585
1	78	76	2075.9256839585
1	79	77	2075.9256839585
1	80	78	2075.9256839585
1	81	79	2075.9256839585
1	82	80	2075.9256839585
1	83	81	2075.9256839585
1	84	82	2075.9256839585
1	85	83	2075.9256839585
1	86	84	2075.9256839585
1	125	85	2075.9256839585
1	126	86	2075.9256839585
1	138224	87	2075.9256839585
1	257476	88	2075.9256839585
1	376543	89	2075.9256839585
1	390258	90	2075.9256839585
1	390259	91	2075.9256839585
1	390260	92	2075.9256839585
1	390261	93	2075.9256839585
1	390262	94	2075.9256839585
1	390263	95	2075.9256839585
1	390264	96	2075.9256839585
1	390265	97	2075.9256839585
1	390266	98	2075.9256839585
1	390267	99	2075.9256839585
1	390268	100	2075.9256839585
1	390269	101	2075.9256839585
1	390270	102	2075.9256839585
1	390271	103	2075.9256839585
1	390272	104	2075.9256839585
1	390273	105	2075.9256839585
1	390274	106	2075.9256839585
1	390275	107	2075.9256839585
1	390276	108	2075.9256839585
1	390277	109	2075.9256839585
1	390278	110	2075.9256839585
1	390279	111	2075.9256839585
1	390280	112	2075.9256839585
1	390281	113	2075.9256839585
1	390282	114	2075.9256839585
1	390283	115	2075.9256839585
1	390284	116	2075.9256839585
1	390285	117	2075.9256839585
1	390286	118	2075.9256839585
1	390287	119	2075.9256839585
1	390288	120	2075.9256839585
1	390289	121	2075.9256839585
1	390290	122	2075.9256839585
1	390291	123	2075.9256839585
1	390293	124	2075.1275552576
1	390294	125	2072.867333821
1	390295	126	2068.9205205552
1	390296	127	2063.5496731689
1	390297	128	2056.7872028351
1	390298	129	2048.4902385706
1	390299	130	2038.7675958024
1	390300	131	2028.6022951733
1	390301	132	2018.417070752
1	390302	133	2008.256261237
1	390303	134	1998.0932603814
1	390304	135	1987.9181907214
1	390305	136	1977.7665322451
1	390306	137	1968.0501208147
1	390307	138	1958.3385135997
1	390308	139	1948.615570195
1	390309	140	1938.9078749632
1	390310	141	1929.186113256
1	390311	142	1919.470647444
1	390312	143	1909.7587375781
1	390313	144	1900.02743199
1	390314	145	1890.3008678323
1	390315	146	1880.5837197192
1	390316	147	1870.8658596538
1	390317	148	1860.8897034042
1	390318	149	1850.9084404707
1	390319	150	1840.9401753265
1	390320	151	1830.964658075
1	390321	152	1820.9911799645
1	390322	153	1811.018220691
1	390323	154	1801.0511358669
1	390324	155	1791.0823324136
1	390325	156	1781.121853428
1	390326	157	1771.1451637633
1	390327	158	1761.4067858877
1	390328	159	1751.8182562068
1	390329	160	1742.2205829797
1	390330	161	1732.4840678228
1	390331	162	1722.7348224521
1	390332	163	1712.9714608891
1	390333	164	1703.2353772353
1	390334	165	1693.4762023259
1	390335	166	1683.7197832912
1	390336	167	1673.9710291475
1	390337	168	1664.2364074457
1	390338	169	1654.4796901215
1	390339	170	1644.7235776251
1	390340	171	1634.9678956736
1	390341	172	1625.2199055236
1	390342	173	1615.460128908
1	390343	174	1605.7129369611
1	390344	175	1595.953083735
1	390345	176	1586.189389755
1	390346	177	1576.4408596102
1	390347	178	1566.6826029085
1	390348	179	1556.9184809644
1	390349	180	1547.1477704253
1	390350	181	1537.2441600384
1	390351	182	1527.3290872378
1	390352	183	1517.412863561
1	390353	184	1507.4992719619
1	390354	185	1497.6031384524
1	390355	186	1488.3415105762
1	390356	187	1479.2103216965
1	390357	188	1470.0992611498
1	390358	189	1460.9801697927
1	390359	190	1451.8535331395
1	390360	191	1443.2979255952
1	390361	192	1435.2704950152
1	390362	193	1427.2416525502
1	390363	194	1419.19836077
1	390364	195	1411.1629544087
1	390365	196	1404.4145720983
1	390366	197	1398.4702889351
1	390367	198	1392.5117707513
1	390368	199	1386.5563770095
1	390369	200	1382.1895149173
2	3	2	4.1061966058897
2	4	3	5.9789997053199
2	5	4	8.0093729254633
2	6	5	9.8764173609048
2	7	6	11.596768546606
2	8	7	13.455906855406
2	9	8	13.973411976623
2	10	9	13.878008961661
2	11	10	13.968044070094
2	12	11	13.981497396906
2	13	12	13.99814016083
2	14	13	13.923542996629
2	15	14	13.91007151508
2	16	15	13.964598868005
2	17	16	13.96687521836
2	18	17	13.952304350403
2	19	18	13.956911946491
2	20	19	11.308624817275
2	21	20	6.8086248172749
2	22	21	8.4461817170353
2	23	22	10.624212629727
2	24	23	12.557629030298
2	25	24	13.872831924674
2	26	25	13.98525414166
2	27	26	13.925435421765
2	28	27	13.955199324498
2	29	28	13.88918493646
2	30	29	13.979664632629
2	31	30	13.937930595062
2	32	31	13.906015034565
2	33	32	13.998227208101
2	34	33	13.988192806833
2	35	34	13.998502501769
2	36	35	13.993922886373
2	37	36	13.945127228512
2	38	37	13.959951251952
2	39	38	13.886837075693
2	40	39	13.895681023148
2	41	40	13.964872835542
2	42	41	13.991644618935
2	43	42	13.985489140681
2	44	43	13.934071304377
2	45	44	13.959362317654
2	46	45	13.967522231955
2	47	46	13.940664265624
2	48	47	13.889081600807
2	49	48	13.961157139561
2	50	49	13.942521108142
2	51	50	13.891655223593
2	52	51	13.973152450395
2	53	52	13.883243719845
2	54	53	13.995758196278
2	55	54	13.952239667964
2	56	55	13.955770944299
2	57	56	13.919550240268
2	58	57	13.890115879602
2	59	58	13.982012811573
2	60	59	13.954506225567
2	61	60	13.954468280503
2	62	61	13.945513836897
2	63	62	13.993123242173
2	64	63	13.914571281173
2	65	64	13.88221136349
2	66	65	13.923532148069
2	67	66	13.945770793585
2	68	67	13.973948582511
2	69	68	13.893637255763
2	70	69	13.996249677537
2	71	70	13.928761894358
2	72	71	13.870405760119
2	73	72	10.648582886362
2	74	73	6.1600396071981
2	76	74	1.6600396071981
2	77	75	0
2	78	76	0
2	79	77	0
2	80	78	0
2	81	79	0
2	82	80	0
2	83	81	0
2	84	82	0
2	85	83	0
2	86	84	0
2	125	85	0
2	126	86	0
2	138224	87	0
2	257476	88	0
2	376543	89	0
2	390258	90	0
2	390259	91	0
2	390260	92	0
2	390261	93	0
2	390262	94	0
2	390263	95	0
2	390264	96	0
2	390265	97	0
2	390266	98	0
2	390267	99	0
2	390268	100	0
2	390269	101	0
2	390270	102	0
2	390271	103	0
2	390272	104	0
2	390273	105	0
2	390274	106	0
2	390275	107	0
2	390276	108	0
2	390277	109	0
2	390278	110	0
2	390279	111	0
2	390280	112	0
2	390281	113	0
2	390282	114	0
2	390283	115	0
2	390284	116	0
2	390285	117	0
2	390286	118	0
2	390287	119	0
2	390288	120	0
2	390289	121	0
2	390290	122	0
2	390291	123	0
2	390293	124	2.2219942613752
2	390294	125	4.3816652589273
2	390295	126	6.271098397682
2	390296	127	8.1846742143464
2	390297	128	10.238758130733
2	390298	129	12.368734642219
2	390299	130	13.896718291966
2	390300	131	13.911634699195
2	390301	132	13.994902517959
2	390302	133	13.870053731997
2	390303	134	13.874626658834
2	390304	135	13.920382400334
2	390305	136	13.951488414339
2	390306	137	13.901121964687
2	390307	138	13.882344841273
2	390308	139	13.93839835058
2	390309	140	13.915164393331
2	390310	141	13.940713392529
2	390311	142	13.933927406024
2	390312	143	13.890401338409
2	390313	144	13.996025419473
2	390314	145	13.881536796647
2	390315	146	13.894070957832
2	390316	147	13.990746577485
2	390317	148	13.900286123792
2	390318	149	13.946558753557
2	390319	150	13.873320181423
2	390320	151	13.881839076644
2	390321	152	13.947724058882
2	390322	153	13.942398770128
2	390323	154	13.93949202654
2	390324	155	13.874414421821
2	390325	156	13.910654884398
2	390326	157	13.931918415038
2	390327	158	13.872459704871
2	390328	159	13.932245766823
2	390329	160	13.908633437622
2	390330	161	13.996635483608
2	390331	162	13.926375439006
2	390332	163	13.997844680566
2	390333	164	13.898853874858
2	390334	165	13.92978552412
2	390335	166	13.925159839098
2	390336	167	13.918733168186
2	390337	168	13.913190334414
2	390338	169	13.911510896785
2	390339	170	13.991509729908
2	390340	171	13.916351590399
2	390341	172	13.966534997355
2	390342	173	13.95199746937
2	390343	174	13.873021191314
2	390344	175	13.956997573012
2	390345	176	13.975757075921
2	390346	177	13.912612352434
2	390347	178	13.991960056
2	390348	179	13.951830342882
2	390349	180	13.929496678174
2	390350	181	13.878089943773
2	390351	182	13.938250236956
2	390352	183	13.922101011877
2	390353	184	13.994347229733
2	390354	185	13.916482416282
2	390355	186	13.90528861128
2	390356	187	13.921083884011
2	390357	188	13.910010552092
2	390358	189	13.908050642761
2	390359	190	13.978709612093
2	390360	191	13.960658139281
2	390361	192	13.996360867096
2	390362	193	13.887962815345
2	390363	194	13.980948975335
2	390364	195	13.925325378878
2	390365	196	13.946562061303
2	390366	197	13.880639836157
2	390367	198	13.967846674775
2	390368	199	13.891077681468
2	390369	200	13.880399412508
3	4	3	2415.087236425
3	5	4	2412.4587210473
3	6	5	2408.1110644841
3	7	6	2403.345089719
3	8	7	2397.301088883
3	9	8	2389.8465583593
3	10	9	2381.0050762888
3	11	10	2371.2393109209
3	12	11	2361.456275242
3	13	12	2351.6667241531
3	14	13	2342.0239308892
3	15	14	2334.8374564956
3	16	15	2336.3667948003
3	17	16	2347.1019757818
3	18	17	2357.4476331343
3	19	18	2370.0085037187
3	20	19	2383.8136269193
3	21	20	2396.7444725132
3	22	21	2407.6328206152
3	23	22	2418.0576361992
3	24	23	2425.241117702
3	25	24	2430.8771458919
3	26	25	2432.3860260363
3	27	26	2434.1924756131
3	28	27	2436.2460850258
3	29	28	2438.1719409506
3	30	29	2439.0688789508
3	31	30	2440.0491260703
3	32	31	2441.0597969076
3	33	32	2442.0698649774
3	34	33	2443.0800035406
3	35	34	2444.0908696008
3	36	35	2445.1010609196
3	37	36	2446.1119071692
3	38	37	2447.1220664025
3	39	38	2448.1328479752
3	40	39	2449.1441845684
3	41	40	2450.1548796889
3	42	41	2450.1033546728
3	43	42	2448.9902161405
3	44	43	2447.8786713759
3	45	44	2446.7652954366
3	46	45	2445.6528633082
3	47	46	2444.5395005981
3	48	47	2443.4273969199
3	49	48	2442.3142710602
3	50	49	2441.2022595162
3	51	50	2440.152200238
3	52	51	2439.2116699235
3	53	52	2438.6008381236
3	54	53	2436.2202088925
3	55	54	2428.0266388487
3	56	55	2415.7269269659
3	57	56	2401.9812450237
3	58	57	2388.0569046448
3	59	58	2374.1420472234
3	60	59	2360.2077564648
3	61	60	2346.2997526325
3	62	61	2332.3692457912
3	63	62	2318.446393178
3	64	63	2304.4843849735
3	65	64	2290.5624019726
3	66	65	2276.6296919236
3	67	66	2262.7131494643
3	68	67	2248.7719490241
3	69	68	2234.9544729422
3	70	69	2221.1719816749
3	71	70	2207.7442959497
3	72	71	2194.5495380741
3	73	72	2181.3478890252
3	74	73	2169.3396655932
3	76	74	2160.0448880065
3	77	75	2153.3984868822
3	78	76	2149.080832033
3	79	77	2146.6241071442
3	80	78	2145.4312431742
3	81	79	2144.9250732085
3	82	80	2144.739359487
3	83	81	2144.6717673598
3	84	82	2144.6477223689
3	85	83	2144.6390779603
3	86	84	2144.6359943108
3	125	85	2144.6348924844
3	126	86	2144.6344981422
3	138224	87	2144.6343562368
3	257476	88	2144.6343059891
3	376543	89	2144.6342877605
3	390258	90	2144.6342858577
3	390259	91	2144.6342858577
3	390260	92	2144.6342858577
3	390261	93	2144.6342858577
3	390262	94	2144.6342858577
3	390263	95	2144.6342858577
3	390264	96	2144.6342858577
3	390265	97	2144.6342858577
3	390266	98	2144.6342858577
3	390267	99	2144.6342858577
3	390268	100	2144.6342858577
3	390269	101	2144.6342858577
3	390270	102	2144.6342858577
3	390271	103	2144.6342858577
3	390272	104	2144.6342858577
3	390273	105	2144.6342858577
3	390274	106	2144.6342858577
3	390275	107	2144.6342858577
3	390276	108	2144.6342858577
3	390277	109	2144.6342858577
3	390278	110	2144.6342858577
3	390279	111	2144.6342858577
3	390280	112	2144.6342858577
3	390281	113	2144.6342858577
3	390282	114	2144.6342858577
3	390283	115	2144.6342858577
3	390284	116	2144.6342858577
3	390285	117	2144.6342858577
3	390286	118	2144.6342858577
3	390287	119	2144.6342858577
3	390288	120	2144.6342858577
3	390289	121	2144.6342858577
3	390290	122	2144.6342858577
3	390291	123	2144.6342858577
3	390293	124	2144.2717213706
3	390294	125	2142.4852626633
3	390295	126	2139.1459286549
3	390296	127	2134.9092315615
3	390297	128	2127.1506884383
3	390298	129	2120.4396629527
3	390299	130	2112.3748830794
3	390300	131	2103.1445977011
3	390301	132	2093.6125902018
3	390302	133	2084.0916533082
3	390303	134	2074.5763025238
3	390304	135	2065.0651152468
3	390305	136	2055.5394557185
3	390306	137	2046.0139620028
3	390307	138	2036.037109718
3	390308	139	2026.0416056495
3	390309	140	2016.0550466815
3	390310	141	2006.0567219785
3	390311	142	1996.0671525134
3	390312	143	1986.0604344947
3	390313	144	1976.0609414392
3	390314	145	1966.0742382994
3	390315	146	1956.0763707043
3	390316	147	1946.080606018
3	390317	148	1936.1058996693
3	390318	149	1926.3646586477
3	390319	150	1916.6311003271
3	390320	151	1906.9156451061
3	390321	152	1897.1749465653
3	390322	153	1887.4528587305
3	390323	154	1877.712342709
3	390324	155	1867.9721673065
3	390325	156	1858.2386061777
3	390326	157	1848.5064636704
3	390327	158	1838.7728124516
3	390328	159	1828.8473996331
3	390329	160	1818.7378593694
3	390330	161	1808.6428767099
3	390331	162	1798.6742544788
3	390332	163	1788.7246805537
3	390333	164	1778.7677239976
3	390334	165	1768.8099679751
3	390335	166	1758.8591216704
3	390336	167	1748.9128437561
3	390337	168	1738.9707903019
3	390338	169	1729.0174916936
3	390339	170	1719.0717174138
3	390340	171	1709.114103868
3	390341	172	1699.1778347171
3	390342	173	1689.2347137365
3	390343	174	1679.280362524
3	390344	175	1669.3206322597
3	390345	176	1659.3682247862
3	390346	177	1649.4367705794
3	390347	178	1639.5040289077
3	390348	179	1629.5605934152
3	390349	180	1619.6037500148
3	390350	181	1609.8014063163
3	390351	182	1600.0098564072
3	390352	183	1590.2211058246
3	390353	184	1580.4298020296
3	390354	185	1570.6357577529
3	390355	186	1560.8476054245
3	390356	187	1550.5297658183
3	390357	188	1539.9942773335
3	390358	189	1529.4722505535
3	390359	190	1518.9360938797
3	390360	191	1508.3955709209
3	390361	192	1497.494714934
3	390362	193	1486.1245983572
3	390363	194	1474.72842462
3	390364	195	1463.3484035747
3	390365	196	1451.971828096
3	390366	197	1439.9294116861
3	390367	198	1427.3646526543
3	390368	199	1414.8016906489
3	390369	200	1402.2171742361
4	4	3	1578.3733819658
4	5	4	1579.3385590939
4	6	5	1580.9349958943
4	7	6	1585.4193806918
4	8	7	1591.541120884
4	9	8	1599.0915333284
4	10	9	1608.0467366157
4	11	10	1617.9381115492
4	12	11	1627.846978928
4	13	12	1637.7624455197
4	14	13	1647.8035281617
4	15	14	1659.386512001
4	16	15	1672.4773174776
4	17	16	1681.3572128983
4	18	17	1690.6871858286
4	19	18	1695.3200452719
4	20	19	1697.1790714292
4	21	20	1698.4677377213
4	22	21	1699.4973037448
4	23	22	1700.4830396743
4	24	23	1701.0489956802
4	25	24	1705.5947354669
4	26	25	1715.5239340439
4	27	26	1727.4112907937
4	28	27	1740.9250849374
4	29	28	1754.7107961001
4	30	29	1768.6133265514
4	31	30	1782.519559307
4	32	31	1796.4182763174
4	33	32	1810.3087040847
4	34	33	1824.2001012769
4	35	34	1838.1015029857
4	36	35	1851.9936256707
4	37	36	1865.8947549453
4	38	37	1879.7864363901
4	39	38	1893.6866762303
4	40	39	1907.5945486967
4	41	40	1921.4935996477
4	42	41	1935.3876568843
4	43	42	1949.2810719712
4	44	43	1963.154594766
4	45	44	1977.0509730009
4	46	45	1990.9355712496
4	47	46	2004.8317843657
4	48	47	2018.7122831289
4	49	48	2032.6055400455
4	50	49	2046.4848888535
4	51	50	2060.3886459358
4	52	51	2074.2847229447
4	53	52	2088.2008895781
4	54	53	2101.8381140539
4	55	54	2112.9736565091
4	56	55	2119.4506807448
4	57	56	2120.7231405396
4	58	57	2120.2528340137
4	59	58	2119.7828477826
4	60	59	2119.312205174
4	61	60	2118.8424504288
4	62	61	2118.3719356256
4	63	62	2117.9016793501
4	64	63	2117.4301005611
4	65	64	2116.9598736577
4	66	65	2116.489284439
4	67	66	2116.0192412939
4	68	67	2115.5483653052
4	69	68	2113.7436365336
4	70	69	2111.7891727453
4	71	70	2108.2498749765
4	72	71	2103.7748274636
4	73	72	2099.2974427864
4	74	73	2093.0064005088
4	76	74	2087.5347117027
4	77	75	2083.6220803047
4	78	76	2081.0803450681
4	79	77	2079.6341099162
4	80	78	2078.9318897324
4	81	79	2078.6339154653
4	82	80	2078.5245887293
4	83	81	2078.4847983113
4	84	82	2078.4706434049
4	85	83	2078.4655545782
4	86	84	2078.4637392825
4	125	85	2078.4630906545
4	126	86	2078.4628585121
4	138224	87	2078.4627749743
4	257476	88	2078.4627453946
4	376543	89	2078.4627346629
4	390258	90	2078.4627335435
4	390259	91	2078.4627335435
4	390260	92	2078.4627335435
4	390261	93	2078.4627335435
4	390262	94	2078.4627335435
4	390263	95	2078.4627335435
4	390264	96	2078.4627335435
4	390265	97	2078.4627335435
4	390266	98	2078.4627335435
4	390267	99	2078.4627335435
4	390268	100	2078.4627335435
4	390269	101	2078.4627335435
4	390270	102	2078.4627335435
4	390271	103	2078.4627335435
4	390272	104	2078.4627335435
4	390273	105	2078.4627335435
4	390274	106	2078.4627335435
4	390275	107	2078.4627335435
4	390276	108	2078.4627335435
4	390277	109	2078.4627335435
4	390278	110	2078.4627335435
4	390279	111	2078.4627335435
4	390280	112	2078.4627335435
4	390281	113	2078.4627335435
4	390282	114	2078.4627335435
4	390283	115	2078.4627335435
4	390284	116	2078.4627335435
4	390285	117	2078.4627335435
4	390286	118	2078.4627335435
4	390287	119	2078.4627335435
4	390288	120	2078.4627335435
4	390289	121	2078.4627335435
4	390290	122	2078.4627335435
4	390291	123	2078.4627335435
4	390293	124	2078.2492975546
4	390294	125	2077.1976375207
4	390295	126	2075.0043609412
4	390296	127	2070.9109767415
4	390297	128	2067.4522938402
4	390298	129	2060.289016637
4	390299	130	2051.6807564031
4	390300	131	2041.8284479938
4	390301	132	2031.6540846024
4	390302	133	2021.4915378578
4	390303	134	2011.3349536667
4	390304	135	2001.1828135587
4	390305	136	1991.0152259246
4	390306	137	1980.8478152771
4	390307	138	1971.1158665381
4	390308	139	1961.3995259861
4	390309	140	1951.6918807067
4	390310	141	1941.9727982963
4	390311	142	1932.2622266002
4	390312	143	1922.5349852908
4	390313	144	1912.8147671595
4	390314	145	1903.1069817347
4	390315	146	1893.3883436667
4	390316	147	1883.6717497753
4	390317	148	1873.975626085
4	390318	149	1864.0317714512
4	390319	150	1854.0575693827
4	390320	151	1844.1019179784
4	390321	152	1834.1203991612
4	390322	153	1824.1579511641
4	390323	154	1814.1766193788
4	390324	155	1804.1956366329
4	390325	156	1794.2214316865
4	390326	157	1784.2486804351
4	390327	158	1774.2743831715
4	390328	159	1764.5104035996
4	390329	160	1754.9107743576
4	390330	161	1745.3249684554
4	390331	162	1735.6086320514
4	390332	163	1725.8578834841
4	390333	164	1716.0998998154
4	390334	165	1706.3411326567
4	390335	166	1696.589137136
4	390336	167	1686.8416187149
4	390337	168	1677.0982403345
4	390338	169	1667.3438415164
4	390339	170	1657.5968166646
4	390340	171	1647.8381891353
4	390341	172	1638.1004794696
4	390342	173	1628.3560548956
4	390343	174	1618.6006245073
4	390344	175	1608.8399225585
4	390345	176	1599.0863970667
4	390346	177	1589.3534061257
4	390347	178	1579.6191534484
4	390348	179	1569.8744206475
4	390349	180	1560.1165478732
4	390350	181	1550.360103542
4	390351	182	1540.4760188591
4	390352	183	1530.5947599579
4	390353	184	1520.7109237155
4	390354	185	1510.8243210921
4	390355	186	1500.9436660986
4	390356	187	1491.6211250322
4	390357	188	1482.5089414315
4	390358	189	1473.4084009109
4	390359	190	1464.2956393911
4	390360	191	1455.179101455
4	390361	192	1446.5550877936
4	390362	193	1438.5478190416
4	390363	194	1430.5221998449
4	390364	195	1422.5079559889
4	390365	196	1414.4961386323
4	390366	197	1407.6460799323
4	390367	198	1401.7223024722
4	390368	199	1395.7993722362
4	390369	200	1389.8662799662
5	4	3	1.8728030994302
5	5	4	2.0303732201434
5	6	5	1.8670444354415
5	7	6	1.7203511857009
5	8	7	1.8591383088008
5	9	8	0.51750512121652
5	10	9	-0.095403014961629
5	11	10	0.090035108432639
5	12	11	0.013453326812014
5	13	12	0.016642763924319
5	14	13	-0.074597164201549
5	15	14	-0.013471481548622
5	16	15	0.054527352924923
5	17	16	0.0022763503552419
5	18	17	-0.014570867957081
5	19	18	0.0046075960877356
5	20	19	-2.648287129216
5	21	20	-4.5
5	22	21	1.6375568997604
5	23	22	2.1780309126922
5	24	23	1.9334164005704
5	25	24	1.3152028943762
5	26	25	0.11242221698631
5	27	26	-0.059818719895556
5	28	27	0.029763902733102
5	29	28	-0.06601438803831
5	30	29	0.090479696169496
5	31	30	-0.041734037566931
5	32	31	-0.031915560497437
5	33	32	0.092212173535954
5	34	33	-0.010034401267767
5	35	34	0.010309694935568
5	36	35	-0.0045796153950501
5	37	36	-0.048795657861048
5	38	37	0.014824023440015
5	39	38	-0.073114176259841
5	40	39	0.0088439474557518
5	41	40	0.069191812393255
5	42	41	0.026771783393343
5	43	42	-0.0061554782534952
5	44	43	-0.051417836304754
5	45	44	0.025291013277601
5	46	45	0.0081599143007782
5	47	46	-0.026857966331299
5	48	47	-0.051582664817106
5	49	48	0.072075538753998
5	50	49	-0.018636031418573
5	51	50	-0.050865884548985
5	52	51	0.081497226802167
5	53	52	-0.08990873055067
5	54	53	0.11251447643386
5	55	54	-0.043518528314307
5	56	55	0.0035312763345434
5	57	56	-0.036220704030711
5	58	57	-0.029434360666201
5	59	58	0.091896931971423
5	60	59	-0.027506586005911
5	61	60	-3.7945064249811e-05
5	62	61	-0.0089544436056173
5	63	62	0.047609405275434
5	64	63	-0.078551960999611
5	65	64	-0.032359917683062
5	66	65	0.041320784578566
5	67	66	0.022238645516335
5	68	67	0.028177788925824
5	69	68	-0.080311326747761
5	70	69	0.10261242177337
5	71	70	-0.067487783178221
5	72	71	-0.058356134239585
5	73	72	-3.2218228737569
5	74	73	-4.4885432791637
5	76	74	-4.5
5	77	75	-1.6600396071981
5	78	76	0
5	79	77	0
5	80	78	0
5	81	79	0
5	82	80	0
5	83	81	0
5	84	82	0
5	85	83	0
5	86	84	0
5	125	85	0
5	126	86	0
5	138224	87	0
5	257476	88	0
5	376543	89	0
5	390258	90	0
5	390259	91	0
5	390260	92	0
5	390261	93	0
5	390262	94	0
5	390263	95	0
5	390264	96	0
5	390265	97	0
5	390266	98	0
5	390267	99	0
5	390268	100	0
5	390269	101	0
5	390270	102	0
5	390271	103	0
5	390272	104	0
5	390273	105	0
5	390274	106	0
5	390275	107	0
5	390276	108	0
5	390277	109	0
5	390278	110	0
5	390279	111	0
5	390280	112	0
5	390281	113	0
5	390282	114	0
5	390283	115	0
5	390284	116	0
5	390285	117	0
5	390286	118	0
5	390287	119	0
5	390288	120	0
5	390289	121	0
5	390290	122	0
5	390291	123	0
5	390293	124	2.2219942613752
5	390294	125	2.1596709975521
5	390295	126	1.8894331387547
5	390296	127	1.9135758166644
5	390297	128	2.0540839163866
5	390298	129	2.1299765114859
5	390299	130	1.5279836497474
5	390300	131	0.014916407228448
5	390301	132	0.083267818763851
5	390302	133	-0.12484878596151
5	390303	134	0.0045729268365537
5	390304	135	0.045755741500761
5	390305	136	0.031106014004909
5	390306	137	-0.050366449651774
5	390307	138	-0.018777123414912
5	390308	139	0.056053509307095
5	390309	140	-0.02323395724874
5	390310	141	0.025548999197781
5	390311	142	-0.0067859865049833
5	390312	143	-0.043526067615021
5	390313	144	0.10562408106402
5	390314	145	-0.11448862282559
5	390315	146	0.012534161184449
5	390316	147	0.096675619652959
5	390317	148	-0.090460453692357
5	390318	149	0.046272629764861
5	390319	150	-0.073238572133704
5	390320	151	0.008518895220476
5	390321	152	0.065884982238058
5	390322	153	-0.0053252887539568
5	390323	154	-0.002906743588392
5	390324	155	-0.065077604718971
5	390325	156	0.03624046257697
5	390326	157	0.021263530640862
5	390327	158	-0.059458710167091
5	390328	159	0.05978606195189
5	390329	160	-0.023612329200841
5	390330	161	0.088002045985776
5	390331	162	-0.070260044601746
5	390332	163	0.071469241559971
5	390333	164	-0.098990805707871
5	390334	165	0.030931649261619
5	390335	166	-0.0046256850217468
5	390336	167	-0.0064266709121874
5	390337	168	-0.0055428337724877
5	390338	169	-0.0016794376284821
5	390339	170	0.079998833122664
5	390340	171	-0.075158139509149
5	390341	172	0.050183406956494
5	390342	173	-0.01453752798494
5	390343	174	-0.078976278055924
5	390344	175	0.083976381698157
5	390345	176	0.018759502908214
5	390346	177	-0.063144723486621
5	390347	178	0.079347703566309
5	390348	179	-0.040129713118077
5	390349	180	-0.022333664707839
5	390350	181	-0.051406734401827
5	390351	182	0.060160293183291
5	390352	183	-0.016149225078989
5	390353	184	0.072246217855717
5	390354	185	-0.077864813450724
5	390355	186	-0.011193805001676
5	390356	187	0.015795272730756
5	390357	188	-0.011073331919032
5	390358	189	-0.0019599093310543
5	390359	190	0.070658969331999
5	390360	191	-0.018051472811495
5	390361	192	0.035702727814206
5	390362	193	-0.10839805175085
5	390363	194	0.092986159990541
5	390364	195	-0.055623596457298
5	390365	196	0.021236682424787
5	390366	197	-0.065922225145624
5	390367	198	0.087206838617567
5	390368	199	-0.076768993306905
5	390369	200	-0.010678268959746
6	4	3	4.1167668903806
6	5	4	5.4629825043428
6	6	5	6.1194046058172
6	7	6	6.6215754659546
6	8	7	8.0131302877348
6	9	8	3.7788698068686
6	10	9	1.7073090278309
6	11	10	2.3386593059183
6	12	11	2.0822829045482
6	13	12	2.0948021431415
6	14	13	1.7807126546494
6	15	14	1.9844951865828
6	16	15	2.2187318873595
6	17	16	2.0431168971899
6	18	17	1.9849702338739
6	19	18	2.0499339673421
6	20	19	0.973
6	21	20	0.973
6	22	21	4.9064010427209
6	23	22	7.3099995346188
6	24	23	7.7499838805377
6	25	24	6.4230548755872
6	26	25	2.4162492122599
6	27	26	1.830468513235
6	28	27	2.1343627711725
6	29	28	1.8065605717879
6	30	29	2.3415987497462
6	31	30	1.8923104551965
6	32	31	1.9222826567934
6	33	32	2.349750320055
6	34	33	2.0038097394705
6	35	34	2.0734752638004
6	36	35	2.0227796135116
6	37	36	1.8692403700243
6	38	37	2.084619690333
6	39	38	1.7825981052735
6	40	39	2.0578080718071
6	41	40	2.268117252608
6	42	41	2.1282650880838
6	43	42	2.0166131901633
6	44	43	1.8594361067942
6	45	44	2.1197704833803
6	46	45	2.062988537836
6	47	46	1.9425411750845
6	48	47	1.8548585613045
6	49	48	2.2773779780732
6	50	49	1.970345666612
6	51	50	1.857488034975
6	52	51	2.3105413245945
6	53	52	1.7261038276299
6	54	53	2.4179215050886
6	55	54	1.8876276396477
6	56	55	2.0461960363559
6	57	56	1.909115486539
6	58	57	1.9290927407511
6	59	58	2.3466660406794
6	60	59	1.9416842431598
6	61	60	2.0340583936544
6	62	61	2.0031764052984
6	63	62	2.1986977886641
6	64	63	1.7666973762772
6	65	64	1.9185573079767
6	66	65	2.1696826795052
6	67	66	2.1080399085383
6	68	67	2.1310734253014
6	69	68	1.7590712333387
6	70	69	2.3845846398967
6	71	70	1.8050160857582
6	72	71	1.8305505744011
6	73	72	0.973
6	74	73	0.973
6	76	74	0.973
6	77	75	0.973
6	78	76	0.973
6	79	77	0.973
6	80	78	0.973
6	81	79	0.973
6	82	80	0.973
6	83	81	0.973
6	84	82	0.973
6	85	83	0.973
6	86	84	0.973
6	125	85	0.973
6	126	86	0.973
6	138224	87	0.973
6	257476	88	0.973
6	376543	89	0.973
6	390258	90	0.973
6	390259	91	0.973
6	390260	92	0.973
6	390261	93	0.973
6	390262	94	0.973
6	390263	95	0.973
6	390264	96	0.973
6	390265	97	0.973
6	390266	98	0.973
6	390267	99	0.973
6	390268	100	0.973
6	390269	101	0.973
6	390270	102	0.973
6	390271	103	0.973
6	390272	104	0.973
6	390273	105	0.973
6	390274	106	0.973
6	390275	107	0.973
6	390276	108	0.973
6	390277	109	0.973
6	390278	110	0.973
6	390279	111	0.973
6	390280	112	0.973
6	390281	113	0.973
6	390282	114	0.973
6	390283	115	0.973
6	390284	116	0.973
6	390285	117	0.973
6	390286	118	0.973
6	390287	119	0.973
6	390288	120	0.973
6	390289	121	0.973
6	390290	122	0.973
6	390291	123	0.973
6	390293	124	2.4080817491368
6	390294	125	3.6097150181135
6	390295	126	4.2908662920557
6	390296	127	5.3300190940896
6	390297	128	6.7716083595646
6	390298	129	8.2306431470796
6	390299	130	7.1456804450868
6	390300	131	2.0798255390429
6	390301	132	2.3191682825405
6	390302	133	1.6082559213645
6	390303	134	2.041341198165
6	390304	135	2.1842086286227
6	390305	136	2.1384694997038
6	390306	137	1.8600084915429
6	390307	138	1.9640130440965
6	390308	139	2.2208369285194
6	390309	140	1.9522585332739
6	390310	141	2.1186181801077
6	390311	142	2.0093003716045
6	390312	143	1.8819465388882
6	390313	144	2.3947145548295
6	390314	145	1.643736494877
6	390315	146	2.0699973962873
6	390316	147	2.3638669059736
6	390317	148	1.7256198873154
6	390318	149	2.1889057362864
6	390319	150	1.781046614307
6	390320	151	2.0552833871103
6	390321	152	2.2549627576318
6	390322	153	2.0150593911405
6	390323	154	2.0228912419178
6	390324	155	1.8084265614033
6	390325	156	2.1512104110793
6	390326	157	2.1032775045285
6	390327	158	1.8270440973468
6	390328	159	2.2326585778226
6	390329	160	1.9503614511034
6	390330	161	2.3353501767691
6	390331	162	1.7955070659202
6	390332	163	2.2797267154215
6	390333	164	1.6969318642051
6	390334	165	2.1355056007782
6	390335	166	2.0156701936831
6	390336	167	2.0089808746599
6	390337	168	2.0113881726672
6	390338	169	2.0241720219964
6	390339	170	2.3077295475271
6	390340	171	1.7782274319394
6	390341	172	2.2043339411053
6	390342	173	1.9850520552854
6	390343	174	1.7618380853752
6	390344	175	2.31691055312
6	390345	176	2.0995485605296
6	390346	177	1.8181944013182
6	390347	178	2.3055887362321
6	390348	179	1.8989846269414
6	390349	180	1.9566618588118
6	390350	181	1.8544662206567
6	390351	182	2.234614980947
6	390352	183	1.9766976166272
6	390353	184	2.2819283461995
6	390354	185	1.7691605563639
6	390355	186	1.9916564929001
6	390356	187	2.0837710670817
6	390357	188	1.99252852172
6	390358	189	2.0228808614171
6	390359	190	2.2747067007991
6	390360	191	1.9740842768189
6	390361	192	2.1589041643072
6	390362	193	1.6645976466364
6	390363	194	2.3502035811239
6	390364	195	1.8445377259227
6	390365	196	2.1047572512474
6	390366	197	1.8061360510748
6	390367	198	2.3291141609331
6	390368	199	1.7707192427041
6	390369	200	1.9909162058012
7	5	4	3.6359876041102
7	6	5	5.4397244124148
7	7	6	7.5635227996261
7	8	7	9.4603126667334
7	9	8	11.518787345457
7	10	9	13.489969157172
7	11	10	13.889363473887
7	12	11	13.957880210027
7	13	12	13.945207432676
7	14	13	13.877422518721
7	15	14	13.917387860524
7	16	15	13.887004709987
7	17	16	13.964633335914
7	18	17	13.967113367824
7	19	18	13.93747206229
7	20	19	13.931683103743
7	21	20	11.577300624978
7	22	21	10.992561969771
7	23	22	8.9671972303461
7	24	23	7.3147879075397
7	25	24	9.0678373446896
7	26	25	10.853095042547
7	27	26	12.964081919135
7	28	27	13.915510937227
7	29	28	13.971422964323
7	30	29	13.941478930372
7	31	30	13.892778996523
7	32	31	13.903094408868
7	33	32	13.950461398256
7	34	33	13.957559130192
7	35	34	13.92272057577
7	36	35	13.930623820233
7	37	36	13.872205206307
7	38	37	13.943903224608
7	39	38	13.967722393647
7	40	39	13.950761595755
7	41	40	13.891407757371
7	42	41	13.931263487607
7	43	42	13.989458580737
7	44	43	13.981500841614
7	45	44	13.991147160537
7	46	45	13.910710662541
7	47	46	13.929671112262
7	48	47	13.903310020338
7	49	48	13.975807425713
7	50	49	13.891258782956
7	51	50	13.878995543714
7	52	51	13.91271662473
7	53	52	13.99672767462
7	54	53	13.904448671283
7	55	54	13.954811747659
7	56	55	13.963033125761
7	57	56	13.998327960956
7	58	57	13.970455647933
7	59	58	13.874182712052
7	60	59	13.982985400616
7	61	60	13.927164004399
7	62	61	13.986976957638
7	63	62	13.954892217969
7	64	63	13.994800812206
7	65	64	13.898880426479
7	66	65	13.92846844774
7	67	66	13.888742394324
7	68	67	13.943797341238
7	69	68	13.955750993581
7	70	69	13.913506242358
7	71	70	13.952743970044
7	72	71	13.913389077839
7	73	72	13.907857767178
7	74	73	12.667115429986
7	76	74	9.3284672607684
7	77	75	6.3798349936169
7	78	76	3.9545644133574
7	79	77	2.0813918978178
7	80	78	0.94660400522149
7	81	79	0.3550080345337
7	82	80	0.13300954520883
7	83	81	0.04761210187623
7	84	82	0.016556260583258
7	85	83	0.0060299975878108
7	86	84	0.0022086661525585
7	125	85	0.00077387756089072
7	126	86	0.00027705706484514
7	138224	87	0.00010011109167846
7	257476	88	3.5160591756001e-05
7	376543	89	1.2548449055998e-05
7	390258	90	0
7	390259	91	0
7	390260	92	0
7	390261	93	0
7	390262	94	0
7	390263	95	0
7	390264	96	0
7	390265	97	0
7	390266	98	0
7	390267	99	0
7	390268	100	0
7	390269	101	0
7	390270	102	0
7	390271	103	0
7	390272	104	0
7	390273	105	0
7	390274	106	0
7	390275	107	0
7	390276	108	0
7	390277	109	0
7	390278	110	0
7	390279	111	0
7	390280	112	0
7	390281	113	0
7	390282	114	0
7	390283	115	0
7	390284	116	0
7	390285	117	0
7	390286	118	0
7	390287	119	0
7	390288	120	0
7	390289	121	0
7	390290	122	0
7	390291	123	0
7	390293	124	1.0445196988184
7	390294	125	2.9884987905018
7	390295	126	4.8096514315674
7	390296	127	6.8174035782801
7	390297	128	8.7691594325763
7	390298	129	10.599526541095
7	390299	130	12.631053849006
7	390300	131	13.932286097549
7	390301	132	13.994998328597
7	390302	133	13.883296603279
7	390303	134	13.995512177472
7	390304	135	13.871056991376
7	390305	136	13.986917692865
7	390306	137	13.943966757681
7	390307	138	13.893585113562
7	390308	139	13.992263416776
7	390309	140	13.920795998226
7	390310	141	13.915540341362
7	390311	142	13.996009150492
7	390312	143	13.943330722374
7	390313	144	13.946069068462
7	390314	145	13.887471471685
7	390315	146	13.954565620734
7	390316	147	13.949356459095
7	390317	148	13.890423635682
7	390318	149	13.995531136338
7	390319	150	13.928451775922
7	390320	151	13.908741175602
7	390321	152	13.968066943185
7	390322	153	13.952280158203
7	390323	154	13.93189917359
7	390324	155	13.917479771134
7	390325	156	13.944930259488
7	390326	157	13.942285124382
7	390327	158	13.956302337011
7	390328	159	13.903866642474
7	390329	160	13.9240639326
7	390330	161	13.933277849404
7	390331	162	13.962557790081
7	390332	163	13.940771950665
7	390333	164	13.990735980936
7	390334	165	13.993270096739
7	390335	166	13.89890422689
7	390336	167	13.899982463606
7	390337	168	13.967460071535
7	390338	169	13.939273965724
7	390339	170	13.932982838717
7	390340	171	13.997624491004
7	390341	172	13.88149274193
7	390342	173	13.976876426819
7	390343	174	13.97329661432
7	390344	175	13.994996224095
7	390345	176	13.990226365826
7	390346	177	13.889543105531
7	390347	178	13.920602701949
7	390348	179	13.903073119156
7	390349	180	13.989799513917
7	390350	181	13.99414861413
7	390351	182	13.927120065547
7	390352	183	13.888711553761
7	390353	184	13.89216463842
7	390354	185	13.883774607172
7	390355	186	13.8771053078
7	390356	187	13.942535004022
7	390357	188	13.933725612797
7	390358	189	13.878250423442
7	390359	190	13.92670037474
7	390360	191	13.979902832913
7	390361	192	13.870879058794
7	390362	193	13.993614553264
7	390363	194	13.98724852459
7	390364	195	13.881139268694
7	390365	196	13.900324886546
7	390366	197	13.975571279626
7	390367	198	13.920376998347
7	390368	199	13.992463456639
7	390369	200	13.962742153339
8	6	5	2415.400390152
8	7	6	2413.0191479239
8	8	7	2408.8249249904
8	9	8	2404.0005011697
8	10	9	2398.1105156684
8	11	10	2390.8388377914
8	12	11	2382.1995701396
8	13	12	2372.5048716533
8	14	13	2362.7304040561
8	15	14	2352.9378675392
8	16	15	2343.143725432
8	17	16	2335.1295069718
8	18	17	2335.1658911702
8	19	18	2345.7869753884
8	20	19	2356.1529741121
8	21	20	2368.2880326652
8	22	21	2381.9814290039
8	23	22	2395.0000316246
8	24	23	2405.4370980331
8	25	24	2415.4642480598
8	26	25	2423.2386685482
8	27	26	2430.3090379719
8	28	27	2431.9896722351
8	29	28	2433.7719874576
8	30	29	2435.8189302887
8	31	30	2437.8642760974
8	32	31	2438.9024753132
8	33	32	2439.8467241514
8	34	33	2440.857489909
8	35	34	2441.867181077
8	36	35	2442.878503281
8	37	36	2443.8889671724
8	38	37	2444.8992656055
8	39	38	2445.9104465091
8	40	39	2446.9183823535
8	41	40	2447.9294257697
8	42	41	2448.9401909899
8	43	42	2449.948890319
8	44	43	2450.3303391745
8	45	44	2449.2192108785
8	46	45	2448.107285656
8	47	46	2446.9930858642
8	48	47	2445.8802595369
8	49	48	2444.7677921283
8	50	49	2443.6565488857
8	51	50	2442.5430851536
8	52	51	2441.4309995327
8	53	52	2440.3460235541
8	54	53	2439.4047183199
8	55	54	2438.580052697
8	56	55	2437.0607781091
8	57	56	2430.082354017
8	58	57	2418.3749081139
8	59	58	2404.8745448667
8	60	59	2390.925761636
8	61	60	2376.9965951032
8	62	61	2363.0618729036
8	63	62	2349.1402715852
8	64	63	2335.2332103606
8	65	64	2321.286223413
8	66	65	2307.3438524295
8	67	66	2293.4150906474
8	68	67	2279.4642674313
8	69	68	2265.5389595808
8	70	69	2251.6138047257
8	71	70	2237.7711881803
8	72	71	2223.9585453295
8	73	72	2210.4215935624
8	74	73	2197.2497355877
8	76	74	2184.1560222558
8	77	75	2173.3790648172
8	78	76	2165.2579163206
8	79	77	2159.094177821
8	80	78	2154.7060673891
8	81	79	2151.8673929111
8	82	80	2150.2658268631
8	83	81	2149.4848939162
8	84	82	2149.1540103682
8	85	83	2149.0244250954
8	86	84	2148.9748358403
8	125	85	2148.9557454451
8	126	86	2148.9484369097
8	138224	87	2148.9456711904
8	257476	88	2148.9446069569
8	376543	89	2148.9442051017
8	390258	90	2148.9440560852
8	390259	91	2148.9440027666
8	390260	92	2148.9439836544
8	390261	93	2148.9439807659
8	390262	94	2148.9439807659
8	390263	95	2148.9439807659
8	390264	96	2148.9439807659
8	390265	97	2148.9439807659
8	390266	98	2148.9439807659
8	390267	99	2148.9439807659
8	390268	100	2148.9439807659
8	390269	101	2148.9439807659
8	390270	102	2148.9439807659
8	390271	103	2148.9439807659
8	390272	104	2148.9439807659
8	390273	105	2148.9439807659
8	390274	106	2148.9439807659
8	390275	107	2148.9439807659
8	390276	108	2148.9439807659
8	390277	109	2148.9439807659
8	390278	110	2148.9439807659
8	390279	111	2148.9439807659
8	390280	112	2148.9439807659
8	390281	113	2148.9439807659
8	390282	114	2148.9439807659
8	390283	115	2148.9439807659
8	390284	116	2148.9439807659
8	390285	117	2148.9439807659
8	390286	118	2148.9439807659
8	390287	119	2148.9439807659
8	390288	120	2148.9439807659
8	390289	121	2148.9439807659
8	390290	122	2148.9439807659
8	390291	123	2148.9439807659
8	390293	124	2148.8716102471
8	390294	125	2148.0161872718
8	390295	126	2145.7409141796
8	390296	127	2141.8733518528
8	390297	128	2136.8029471489
8	390298	129	2131.2449759532
8	390299	130	2124.2940059
8	390300	131	2115.9766934039
8	390301	132	2106.6115042769
8	390302	133	2097.0666230372
8	390303	134	2087.5328600521
8	390304	135	2078.0091333556
8	390305	136	2068.4784623771
8	390306	137	2058.9594811682
8	390307	138	2049.4296776565
8	390308	139	2039.5050860436
8	390309	140	2029.5249548657
8	390310	141	2019.5400472507
8	390311	142	2009.533990707
8	390312	143	1999.5439854724
8	390313	144	1989.5451146845
8	390314	145	1979.555666277
8	390315	146	1969.5644468612
8	390316	147	1959.567912942
8	390317	148	1949.5739881702
8	390318	149	1939.5825588773
8	390319	150	1929.7934891112
8	390320	151	1920.0541287722
8	390321	152	1910.3170949299
8	390322	153	1900.5733838635
8	390323	154	1890.8284439512
8	390324	155	1881.0893687609
8	390325	156	1871.3706979457
8	390326	157	1861.6248774631
8	390327	158	1851.8954401392
8	390328	159	1842.1633106656
8	390329	160	1832.2692106802
8	390330	161	1822.1719754958
8	390331	162	1812.06556337
8	390332	163	1802.0811600043
8	390333	164	1792.1305675168
8	390334	165	1782.1730285721
8	390335	166	1772.2183328171
8	390336	167	1762.2784361094
8	390337	168	1752.3166761507
8	390338	169	1742.3580897516
8	390339	170	1732.4143763648
8	390340	171	1722.4654428092
8	390341	172	1712.5053665566
8	390342	173	1702.5637813068
8	390343	174	1692.6303107422
8	390344	175	1682.6749342884
8	390345	176	1672.7326412403
8	390346	177	1662.7657988009
8	390347	178	1652.8196503478
8	390348	179	1642.8619352975
8	390349	180	1632.9171552791
8	390350	181	1622.9650430336
8	390351	182	1613.1447368049
8	390352	183	1603.3285788283
8	390353	184	1593.5091230758
8	390354	185	1583.6780757064
8	390355	186	1573.8642500833
8	390356	187	1564.0314163287
8	390357	188	1553.7524845504
8	390358	189	1543.1974216837
8	390359	190	1532.6460677612
8	390360	191	1522.100616268
8	390361	192	1511.5680125721
8	390362	193	1500.7245688956
8	390363	194	1489.3266051433
8	390364	195	1477.9080498979
8	390365	196	1466.4992508122
8	390366	197	1455.09610738
8	390367	198	1443.1612140625
8	390368	199	1430.5232680787
8	390369	200	1417.8572319348
9	6	5	1578.2583935512
9	7	6	1579.1327732699
9	8	7	1580.6728700418
9	9	8	1584.7555391854
9	10	9	1590.7212830614
9	11	10	1598.0864909654
9	12	11	1606.8368789051
9	13	12	1616.656272877
9	14	13	1626.5564619703
9	15	14	1636.4749523886
9	16	15	1646.3950690497
9	17	16	1657.6276707007
9	18	17	1671.1840366451
9	19	18	1680.1713126069
9	20	19	1689.5196298948
9	21	20	1695.0628891857
9	22	21	1696.9609989887
9	23	22	1698.3027891852
9	24	23	1699.2896835124
9	25	24	1700.2378175072
9	26	25	1700.9330409411
9	27	26	1703.0854300633
9	28	27	1712.9157244964
9	29	28	1724.6442649234
9	30	29	1738.1141895698
9	31	30	1751.9116492001
9	32	31	1765.8227579901
9	33	32	1779.7361337943
9	34	33	1793.6361561455
9	35	34	1807.5214007702
9	36	35	1821.4290753566
9	37	36	1835.3249464519
9	38	37	1849.2185421707
9	39	38	1863.1242735973
9	40	39	1876.9853790617
9	41	40	1890.8892197656
9	42	41	1904.7892347258
9	43	42	1918.6608396098
9	44	43	1932.5545954024
9	45	44	1946.4229201283
9	46	45	1960.3011915311
9	47	46	1974.2078525163
9	48	47	1988.0973708788
9	49	48	2001.9824094698
9	50	49	2015.8521688785
9	51	50	2029.7496428816
9	52	51	2043.6299162656
9	53	52	2057.5249596862
9	54	53	2071.4324859232
9	55	54	2085.3483084282
9	56	55	2099.1278760219
9	57	56	2110.9827003228
9	58	57	2118.2670043893
9	59	58	2120.8208642201
9	60	59	2120.3497321168
9	61	60	2119.8792625833
9	62	61	2119.4086054023
9	63	62	2118.9383913903
9	64	63	2118.4686684823
9	65	64	2117.997597049
9	66	65	2117.5266815238
9	67	66	2117.0562256612
9	68	67	2116.5850246549
9	69	68	2116.1146854516
9	70	69	2115.6443514163
9	71	70	2114.143068525
9	72	71	2112.1843290087
9	73	72	2109.1578896688
9	74	73	2104.6906087371
9	76	74	2100.249830829
9	77	75	2095.3843310522
9	78	76	2090.6035391605
9	79	77	2086.9750436284
9	80	78	2084.3918323023
9	81	79	2082.7207494583
9	82	80	2081.7779328143
9	83	81	2081.3182099191
9	84	82	2081.1234239982
9	85	83	2081.0471391948
9	86	84	2081.0179467825
9	125	85	2081.0067085689
9	126	86	2081.0024061492
9	138224	87	2081.0007780138
9	257476	88	2081.0001515169
9	376543	89	2080.9999149507
9	390258	90	2080.9998272276
9	390259	91	2080.9997958392
9	390260	92	2080.9997845879
9	390261	93	2080.9997828882
9	390262	94	2080.9997828882
9	390263	95	2080.9997828882
9	390264	96	2080.9997828882
9	390265	97	2080.9997828882
9	390266	98	2080.9997828882
9	390267	99	2080.9997828882
9	390268	100	2080.9997828882
9	390269	101	2080.9997828882
9	390270	102	2080.9997828882
9	390271	103	2080.9997828882
9	390272	104	2080.9997828882
9	390273	105	2080.9997828882
9	390274	106	2080.9997828882
9	390275	107	2080.9997828882
9	390276	108	2080.9997828882
9	390277	109	2080.9997828882
9	390278	110	2080.9997828882
9	390279	111	2080.9997828882
9	390280	112	2080.9997828882
9	390281	113	2080.9997828882
9	390282	114	2080.9997828882
9	390283	115	2080.9997828882
9	390284	116	2080.9997828882
9	390285	117	2080.9997828882
9	390286	118	2080.9997828882
9	390287	119	2080.9997828882
9	390288	120	2080.9997828882
9	390289	121	2080.9997828882
9	390290	122	2080.9997828882
9	390291	123	2080.9997828882
9	390293	124	2080.9571795063
9	390294	125	2080.4536055075
9	390295	126	2079.1141881635
9	390296	127	2076.8374152882
9	390297	128	2072.9325202471
9	390298	129	2066.9993797839
9	390299	130	2059.5792114846
9	390300	131	2050.7004710995
9	390301	132	2040.7031212403
9	390302	133	2030.5139498496
9	390303	134	2020.3366472088
9	390304	135	2010.1700583166
9	390305	136	1999.9960563965
9	390306	137	1989.8345333179
9	390307	138	1979.6614574185
9	390308	139	1969.8840563763
9	390309	140	1960.1823816169
9	390310	141	1950.4760636883
9	390311	142	1940.7491869088
9	390312	143	1931.0379135888
9	390313	144	1921.3180220751
9	390314	145	1911.6072900463
9	390315	146	1901.894836423
9	390316	147	1892.1772165764
9	390317	148	1882.4621330788
9	390318	149	1872.7494754344
9	390319	150	1862.8183750371
9	390320	151	1852.8380607069
9	390321	152	1842.8601304311
9	390322	153	1832.875357735
9	390323	154	1822.889325791
9	390324	155	1812.9093036642
9	390325	156	1802.9501907211
9	390326	157	1792.9632564215
9	390327	158	1782.9931106037
9	390328	159	1773.0202060314
9	390329	160	1763.2083617831
9	390330	161	1753.6185623072
9	390331	162	1744.020047076
9	390332	163	1734.3228480183
9	390333	164	1724.5711427517
9	390334	165	1714.8126298701
9	390335	166	1705.0569033492
9	390336	167	1695.315680081
9	390337	168	1685.5530305523
9	390338	169	1675.7934911521
9	390339	170	1666.0485274903
9	390340	171	1656.2984479973
9	390341	172	1646.5374485217
9	390342	173	1636.7945704609
9	390343	174	1627.0596448928
9	390344	175	1617.3032512795
9	390345	176	1607.5596795669
9	390346	177	1597.7920491435
9	390347	178	1588.0446990859
9	390348	179	1578.286013619
9	390349	180	1568.5400046445
9	390350	181	1558.7868099958
9	390351	182	1549.042995871
9	390352	183	1539.1340380823
9	390353	184	1529.2217513407
9	390354	185	1519.297763397
9	390355	186	1509.3911600113
9	390356	187	1499.4653687943
9	390357	188	1490.0552631691
9	390358	189	1480.9250770221
9	390359	190	1471.7980991313
9	390360	191	1462.676226873
9	390361	192	1453.5654680291
9	390362	193	1444.8166195452
9	390363	194	1436.7842365457
9	390364	195	1428.7373422906
9	390365	196	1420.6973234052
9	390366	197	1412.6612901771
9	390367	198	1405.5249863248
9	390368	199	1399.5667041661
9	390369	200	1393.5951786293
10	6	5	1.8037368083047
10	7	6	2.1237983872113
10	8	7	1.8967898671073
10	9	8	2.0584746787231
10	10	9	1.9711818117159
10	11	10	0.39939431671414
10	12	11	0.06851673614001
10	13	12	-0.012672777350527
10	14	13	-0.067784913955256
10	15	14	0.039965341803617
10	16	15	-0.030383150537963
10	17	16	0.077628625927026
10	18	17	0.0024800319108191
10	19	18	-0.02964130553417
10	20	19	-0.0057889585476367
10	21	20	-2.3543824787641
10	22	21	-0.58473865520789
10	23	22	-2.0253647394245
10	24	23	-1.6524093228063
10	25	24	1.7530494371499
10	26	25	1.7852576978575
10	27	26	2.1109868765878
10	28	27	0.95142901809203
10	29	28	0.055912027095911
10	30	29	-0.029944033951033
10	31	30	-0.048699933849274
10	32	31	0.010315412345808
10	33	32	0.047366989387665
10	34	33	0.0070977319357919
10	35	34	-0.034838554421441
10	36	35	0.0079032444627956
10	37	36	-0.058418613926042
10	38	37	0.071698018300813
10	39	38	0.023819169038907
10	40	39	-0.016960797891953
10	41	40	-0.059353838383686
10	42	41	0.039855730235578
10	43	42	0.058195093129761
10	44	43	-0.0079577391222116
10	45	44	0.0096463189227496
10	46	45	-0.08043649799656
10	47	46	0.018960449721197
10	48	47	-0.026361091923899
10	49	48	0.072497405374888
10	50	49	-0.084548642756417
10	51	50	-0.012263239242602
10	52	51	0.03372108101612
10	53	52	0.084011049889959
10	54	53	-0.092279003337026
10	55	54	0.050363076375797
10	56	55	0.008221378102899
10	57	56	0.035294835194945
10	58	57	-0.027872313023545
10	59	58	-0.096272935881279
10	60	59	0.10880268856417
10	61	60	-0.055821396217215
10	62	61	0.059812953239307
10	63	62	-0.032084739669227
10	64	63	0.039908594237641
10	65	64	-0.095920385727659
10	66	65	0.029588021261153
10	67	66	-0.039726053415798
10	68	67	0.055054946914314
10	69	68	0.011953652342783
10	70	69	-0.042244751222897
10	71	70	0.039237727685832
10	72	71	-0.039354892205449
10	73	72	-0.0055313106602988
10	74	73	-1.2407423371918
10	76	74	-3.338648169218
10	77	75	-2.9486322671515
10	78	76	-2.4252705802596
10	79	77	-1.8731725155396
10	80	78	-1.1347878925963
10	81	79	-0.59159597068779
10	82	80	-0.22199848932487
10	83	81	-0.085397443332603
10	84	82	-0.031055841292972
10	85	83	-0.010526262995447
10	86	84	-0.0038213314352524
10	125	85	-0.0014347885916677
10	126	86	-0.00049682049604558
10	138224	87	-0.00017694597316668
10	257476	88	-6.4950499922457e-05
10	376543	89	-2.2612142700003e-05
10	390258	90	-1.2548449055998e-05
10	390259	91	0
10	390260	92	0
10	390261	93	0
10	390262	94	0
10	390263	95	0
10	390264	96	0
10	390265	97	0
10	390266	98	0
10	390267	99	0
10	390268	100	0
10	390269	101	0
10	390270	102	0
10	390271	103	0
10	390272	104	0
10	390273	105	0
10	390274	106	0
10	390275	107	0
10	390276	108	0
10	390277	109	0
10	390278	110	0
10	390279	111	0
10	390280	112	0
10	390281	113	0
10	390282	114	0
10	390283	115	0
10	390284	116	0
10	390285	117	0
10	390286	118	0
10	390287	119	0
10	390288	120	0
10	390289	121	0
10	390290	122	0
10	390291	123	0
10	390293	124	1.0445196988184
10	390294	125	1.9439790916834
10	390295	126	1.8211526410656
10	390296	127	2.0077521467127
10	390297	128	1.9517558542962
10	390298	129	1.8303671085183
10	390299	130	2.0315273079113
10	390300	131	1.3012322485435
10	390301	132	0.062712231047918
10	390302	133	-0.11170172531856
10	390303	134	0.11221557419282
10	390304	135	-0.12445518609602
10	390305	136	0.11586070148973
10	390306	137	-0.042950935184489
10	390307	138	-0.050381644119042
10	390308	139	0.098678303214255
10	390309	140	-0.071467418549583
10	390310	141	-0.0052556568640281
10	390311	142	0.08046880912967
10	390312	143	-0.05267842811765
10	390313	144	0.0027383460872805
10	390314	145	-0.058597596776673
10	390315	146	0.067094149049373
10	390316	147	-0.0052091616392147
10	390317	148	-0.058932823413052
10	390318	149	0.10510750065558
10	390319	150	-0.067079360415228
10	390320	151	-0.01971060032025
10	390321	152	0.059325767583214
10	390322	153	-0.015786784982774
10	390323	154	-0.020380984612276
10	390324	155	-0.014419402456841
10	390325	156	0.027450488354079
10	390326	157	-0.0026451351051211
10	390327	158	0.014017212628387
10	390328	159	-0.052435694537126
10	390329	160	0.020197290126234
10	390330	161	0.0092139168037093
10	390331	162	0.029279940677808
10	390332	163	-0.021785839416554
10	390333	164	0.04996403027093
10	390334	165	0.002534115803428
10	390335	166	-0.094365869848987
10	390336	167	0.0010782367154025
10	390337	168	0.067477607929613
10	390338	169	-0.028186105811038
10	390339	170	-0.006291127006989
10	390340	171	0.06464165228652
10	390341	172	-0.11613174907398
10	390342	173	0.095383684888947
10	390343	174	-0.003579812499229
10	390344	175	0.021699609775096
10	390345	176	-0.0047698582685545
10	390346	177	-0.10068326029461
10	390347	178	0.031059596417473
10	390348	179	-0.01752958279336
10	390349	180	0.086726394761355
10	390350	181	0.0043491002125666
10	390351	182	-0.067028548582458
10	390352	183	-0.038408511786255
10	390353	184	0.0034530846588314
10	390354	185	-0.0083900312474015
10	390355	186	-0.006669299372005
10	390356	187	0.065429696221836
10	390357	188	-0.0088093912252223
10	390358	189	-0.055475189355203
10	390359	190	0.048449951298535
10	390360	191	0.053202458173038
10	390361	192	-0.10902377411956
10	390362	193	0.12273549447069
10	390363	194	-0.0063660286739466
10	390364	195	-0.10610925589688
10	390365	196	0.019185617852489
10	390366	197	0.075246393079871
10	390367	198	-0.05519428127911
10	390368	199	0.072086458292324
10	390369	200	-0.029721303300466
11	6	5	3.7519333531351
11	7	6	5.3861141467011
11	8	7	5.9691385980353
11	9	8	7.521235568555
11	10	9	8.3960113602518
11	11	10	3.3644554792148
11	12	11	2.2650147320434
11	13	12	1.9906492143152
11	14	13	1.799630522272
11	15	14	2.1644488460248
11	16	15	1.9256230326053
11	17	16	2.2964826603433
11	18	17	2.043826998489
11	19	18	1.9328869113682
11	20	19	2.0124225933837
11	21	20	0.973
11	22	21	0.973
11	23	22	0.973
11	24	23	0.973
11	25	24	5.4473354853309
11	26	25	6.4211615732401
11	27	26	8.5321147306764
11	28	27	5.2209588307075
11	29	28	2.2241820967503
11	30	29	1.9322502136755
11	31	30	1.864840524435
11	32	31	2.063508770949
11	33	32	2.1930272554882
11	34	33	2.0583770945503
11	35	34	1.9140486542784
11	36	35	2.0582845609101
11	37	36	1.8304991453765
11	38	37	2.2740464280712
11	39	38	2.1157219232303
11	40	39	1.9767827439579
11	41	40	1.829049675948
11	42	41	2.16562941896
11	43	42	2.2339693632701
11	44	43	2.0101377889403
11	45	44	2.0704661136008
11	46	45	1.7600592553205
11	47	46	2.0953051519302
11	48	47	1.9406393793715
11	49	48	2.2805523114195
11	50	49	1.7446896544633
11	51	50	1.9854756757368
11	52	51	2.1429910618791
11	53	52	2.3218991112193
11	54	53	1.7198589937695
11	55	54	2.2035976560134
11	56	55	2.0627273518964
11	57	56	2.1577467267711
11	58	57	1.9419782702369
11	59	58	1.7040995130405
11	60	59	2.4037578966905
11	61	60	1.844036691971
11	62	61	2.2391338552855
11	63	62	1.9263242143621
11	64	63	2.1729161205418
11	65	64	1.7072187045484
11	66	65	2.1308511894257
11	67	66	1.8945145753267
11	68	67	2.2181054901553
11	69	68	2.074521260439
11	70	69	1.8883527198739
11	71	70	2.165951006859
11	72	71	1.8980320385483
11	73	72	2.0108907081915
11	74	73	0.973
11	76	74	0.973
11	77	75	0.973
11	78	76	0.973
11	79	77	0.973
11	80	78	0.973
11	81	79	0.973
11	82	80	0.973
11	83	81	1.1113169233882
11	84	82	1.1106747597969
11	85	83	1.1102755900288
11	86	84	1.1101045120053
11	125	85	1.1100370642591
11	126	86	1.1100133320597
11	138224	87	1.1100048250899
11	257476	88	1.1100016955966
11	376543	89	1.1100006052688
11	390258	90	0.973
11	390259	91	0.973
11	390260	92	0.973
11	390261	93	0.973
11	390262	94	0.973
11	390263	95	0.973
11	390264	96	0.973
11	390265	97	0.973
11	390266	98	0.973
11	390267	99	0.973
11	390268	100	0.973
11	390269	101	0.973
11	390270	102	0.973
11	390271	103	0.973
11	390272	104	0.973
11	390273	105	0.973
11	390274	106	0.973
11	390275	107	0.973
11	390276	108	0.973
11	390277	109	0.973
11	390278	110	0.973
11	390279	111	0.973
11	390280	112	0.973
11	390281	113	0.973
11	390282	114	0.973
11	390283	115	0.973
11	390284	116	0.973
11	390285	117	0.973
11	390286	118	0.973
11	390287	119	0.973
11	390288	120	0.973
11	390289	121	0.973
11	390290	122	0.973
11	390291	123	0.973
11	390293	124	1.4234290623218
11	390294	125	2.6567394131772
11	390295	126	3.4632410678813
11	390296	127	4.7668672765393
11	390297	128	5.7200955450344
11	390298	129	6.4069781060229
11	390299	130	8.0896239442592
11	390300	131	6.4010434846088
11	390301	132	2.2498502525032
11	390302	133	1.6531914326427
11	390303	134	2.4168814381087
11	390304	135	1.6096433994394
11	390305	136	2.428055322103
11	390306	137	1.8887766658781
11	390307	138	1.8592821107136
11	390308	139	2.3708110320751
11	390309	140	1.7909819863197
11	390310	141	2.012587579963
11	390311	142	2.3098627793734
11	390312	143	1.8560305862413
11	390313	144	2.0425314149554
11	390314	145	1.8312366950988
11	390315	146	2.2598369517886
11	390316	147	2.0161515128889
11	390317	148	1.8303730389514
11	390318	149	2.392908909824
11	390319	150	1.8063604716138
11	390320	151	1.9634504324478
11	390321	152	2.2352851613697
11	390322	153	1.9808793262319
11	390323	154	1.9634503304669
11	390324	155	1.9820465414792
11	390325	156	2.1254651424414
11	390326	157	2.0240534917561
11	390327	158	2.0815199268072
11	390328	159	1.8533209054349
11	390329	160	2.0988581029342
11	390330	161	2.0629615447531
11	390331	162	2.1335393639481
11	390332	163	1.9595924295527
11	390333	164	2.2063649601336
11	390334	165	2.0467036083631
11	390335	166	1.7124276389175
11	390336	167	2.032240670992
11	390337	168	2.2626547778292
11	390338	169	1.9379465276484
11	390339	170	2.010867192696
11	390340	171	2.2566679669249
11	390341	172	1.6382362526927
11	390342	173	2.3577711950933
11	390343	174	2.024056495486
11	390344	175	2.1115228782983
11	390345	176	2.0217633785918
11	390346	177	1.690541414868
11	390347	178	2.1349299297849
11	390348	179	1.9702079787062
11	390349	180	2.3302035558454
11	390350	181	2.0529153996258
11	390351	182	1.8064167126036
11	390352	183	1.8989217824591
11	390353	184	2.039394152796
11	390354	185	1.9989070202427
11	390355	186	2.003997456812
11	390356	187	2.2528205565755
11	390357	188	2.0024854598809
11	390358	189	1.840872948176
11	390359	190	2.1939651933567
11	390360	191	2.2160354842564
11	390361	192	1.6612160521488
11	390362	193	2.4521136028512
11	390363	194	2.0160810843555
11	390364	195	1.671739011277
11	390365	196	2.0929349479287
11	390366	197	2.2897829115011
11	390367	198	1.845539785965
11	390368	199	2.2811637074973
11	390369	200	1.9350191029182
12	7	6	3.4616585455444
12	8	7	5.314056270633
12	9	8	7.2878506183513
12	10	9	9.2202992598322
12	11	10	11.272821894901
12	12	11	13.124149588924
12	13	12	13.987373048679
12	14	13	13.9342990027
12	15	14	13.966025378916
12	16	15	13.917221514769
12	17	16	13.925836450513
12	18	17	13.930988760646
12	19	18	13.942629714631
12	20	19	13.997423355954
12	21	20	13.898770572464
12	22	21	13.632147705457
12	23	22	12.076428074088
12	24	23	9.7846915131278
12	25	24	10.117750493182
12	26	25	6.4451376676957
12	27	26	8.777532048831
12	28	27	10.975030628222
12	29	28	12.678498908871
12	30	29	13.890930535088
12	31	30	13.875450763288
12	32	31	13.914747303301
12	33	32	13.887046969056
12	34	33	13.876417213378
12	35	34	13.926770333524
12	36	35	13.948160853945
12	37	36	13.986614295798
12	38	37	13.902846648321
12	39	38	13.89239756926
12	40	39	13.945607627723
12	41	40	13.90238496786
12	42	41	13.8943891274
12	43	42	13.995577747549
12	44	43	13.981304306723
12	45	44	13.889175273133
12	46	45	13.972242008243
12	47	46	13.908103838712
12	48	47	13.906537666784
12	49	48	13.996166704185
12	50	49	13.886470835633
12	51	50	13.946141843742
12	52	51	13.877574489091
12	53	52	13.972185968615
12	54	53	13.94504427311
12	55	54	13.965731629799
12	56	55	13.871087854428
12	57	56	13.884280886145
12	58	57	13.909052972731
12	59	58	13.974088552413
12	60	59	13.92781890474
12	61	60	13.871840020602
12	62	61	13.881755905158
12	63	62	13.996387345891
12	64	63	13.878949244565
12	65	64	13.888252579984
12	66	65	13.977314221875
12	67	66	13.945700764337
12	68	67	13.995339845465
12	69	68	13.989036934255
12	70	69	13.997907579555
12	71	70	13.912958603851
12	72	71	13.994730784865
12	73	72	13.949254455173
12	74	73	13.894539396982
12	76	74	13.344716750274
12	77	75	10.763541076501
12	78	76	8.3631370038373
12	79	77	6.2415116450094
12	80	78	4.2155561131592
12	81	79	2.5591902141722
12	82	80	1.3425525207225
12	83	81	0.61472730531401
12	84	82	0.24550038275825
12	85	83	0.094727460953968
12	86	84	0.035947010279171
12	125	85	0.013683262617011
12	126	86	0.0052808933157601
12	138224	87	0.0020014696843765
12	257476	88	0.00075942259685797
12	376543	89	0.00028903819767502
12	390258	90	0.00010434762202658
12	390259	91	3.8055596729986e-05
12	390260	92	1.3276686135162e-05
12	390261	93	0
12	390262	94	0
12	390263	95	0
12	390264	96	0
12	390265	97	0
12	390266	98	0
12	390267	99	0
12	390268	100	0
12	390269	101	0
12	390270	102	0
12	390271	103	0
12	390272	104	0
12	390273	105	0
12	390274	106	0
12	390275	107	0
12	390276	108	0
12	390277	109	0
12	390278	110	0
12	390279	111	0
12	390280	112	0
12	390281	113	0
12	390282	114	0
12	390283	115	0
12	390284	116	0
12	390285	117	0
12	390286	118	0
12	390287	119	0
12	390288	120	0
12	390289	121	0
12	390290	122	0
12	390291	123	0
12	390293	124	0.29699343284261
12	390294	125	1.6603142291403
12	390295	126	3.409474345617
12	390296	127	5.4731164099115
12	390297	128	7.1755573046892
12	390298	129	9.0875503127799
12	390299	130	11.091269865554
12	390300	131	12.953332332748
12	390301	132	13.956573342038
12	390302	133	13.950365465668
12	390303	134	13.987641519217
12	390304	135	13.925280719134
12	390305	136	13.943084882149
12	390306	137	13.899759404154
12	390307	138	13.910187145649
12	390308	139	13.92527937796
12	390309	140	13.892249986657
12	390310	141	13.872878628264
12	390311	142	13.942859448416
12	390312	143	13.930176124065
12	390313	144	13.904288685103
12	390314	145	13.947520695382
12	390315	146	13.91186851619
12	390316	147	13.884419017115
12	390317	148	13.910779733292
12	390318	149	13.954587524948
12	390319	150	13.915731141893
12	390320	151	13.977620203889
12	390321	152	13.904844741318
12	390322	153	13.953517861669
12	390323	154	13.948664230278
12	390324	155	13.890329300698
12	390325	156	13.901576737601
12	390326	157	13.960920032556
12	390327	158	13.873268092917
12	390328	159	13.897905882034
12	390329	160	13.871426088007
12	390330	161	13.902359415628
12	390331	162	13.901665229683
12	390332	163	13.890332204215
12	390333	164	13.87730289405
12	390334	165	13.923202529061
12	390335	166	13.999889892975
12	390336	167	13.873588054108
12	390337	168	13.961176059896
12	390338	169	13.937183574808
12	390339	170	13.887638453764
12	390340	171	13.902596379949
12	390341	172	13.959892378727
12	390342	173	13.995819666104
12	390343	174	13.905849278762
12	390344	175	13.932192788983
12	390345	176	13.940266993192
12	390346	177	13.984519628591
12	390347	178	13.999702042846
12	390348	179	13.964638850316
12	390349	180	13.900635256902
12	390350	181	13.925972879333
12	390351	182	13.930902947583
12	390352	183	13.978870710894
12	390353	184	13.942439569917
12	390354	185	13.97258714041
12	390355	186	13.870789043959
12	390356	187	13.958896917864
12	390357	188	13.958709578416
12	390358	189	13.921796100594
12	390359	190	13.871822342889
12	390360	191	13.949765845318
12	390361	192	13.959529014912
12	390362	193	13.966299225593
12	390363	194	13.966381310457
12	390364	195	13.995864084309
12	390365	196	13.972179546747
12	390366	197	13.9647343656
12	390367	198	13.972160039819
12	390368	199	13.947741319139
12	390369	200	13.939983172731
13	8	7	2415.5255091987
13	9	8	2413.2787839702
13	10	9	2409.1630805873
13	11	10	2404.3463197631
13	12	11	2398.5547341793
13	13	12	2391.3407964634
13	14	13	2382.681323986
13	15	14	2372.9494974826
13	16	15	2363.1615408992
13	17	16	2353.3798614484
13	18	17	2343.5756251765
13	19	18	2335.2304396011
13	20	19	2334.8767789165
13	21	20	2345.3756297918
13	22	21	2355.7253639563
13	23	22	2367.7117710693
13	24	23	2380.9680755943
13	25	24	2393.2945487332
13	26	25	2403.941363287
13	27	26	2413.4553433224
13	28	27	2421.9797803104
13	29	28	2429.120599585
13	30	29	2431.6157267895
13	31	30	2433.2802118151
13	32	31	2435.2332397836
13	33	32	2437.3254621057
13	34	33	2438.6840515978
13	35	34	2439.5601232323
13	36	35	2440.5728434784
13	37	36	2441.5838716838
13	38	37	2442.5944210311
13	39	38	2443.6030551731
13	40	39	2444.6155923648
13	41	40	2445.6259086175
13	42	41	2446.6366043197
13	43	42	2447.6479125855
13	44	43	2448.6588481168
13	45	44	2449.6696057552
13	46	45	2450.637849304
13	47	46	2449.5239132296
13	48	47	2448.4121675248
13	49	48	2447.2988634286
13	50	49	2446.1882144989
13	51	50	2445.0765511893
13	52	51	2443.9636967406
13	53	52	2442.8522380446
13	54	53	2441.7384164953
13	55	54	2440.6265153898
13	56	55	2439.6654342563
13	57	56	2438.7237433189
13	58	57	2437.7700052466
13	59	58	2432.4767033909
13	60	59	2421.8155448905
13	61	60	2408.651604427
13	62	61	2394.7259045097
13	63	62	2380.8083598695
13	64	63	2366.876433981
13	65	64	2352.9504399361
13	66	65	2339.0160324669
13	67	66	2325.0829945125
13	68	67	2311.1481251561
13	69	68	2297.2334664124
13	70	69	2283.2922524826
13	71	70	2269.389759439
13	72	71	2255.4304723713
13	73	72	2241.571481659
13	74	73	2227.7964160843
13	76	74	2214.1080790017
13	77	75	2200.8999761852
13	78	76	2188.308226518
13	79	77	2177.8108022829
13	80	78	2170.0327298515
13	81	79	2164.0172485863
13	82	80	2159.605723714
13	83	81	2156.6452647829
13	84	82	2154.88176354
13	85	83	2153.9672126984
13	86	84	2153.5437058047
13	125	85	2153.3704762236
13	126	86	2153.2999756046
13	138224	87	2153.2719818669
13	257476	88	2153.2608478717
13	376543	89	2153.2564820766
13	390258	90	2153.2547618009
13	390259	91	2153.2540891353
13	390260	92	2153.2538262467
13	390261	93	2153.2537250387
13	390262	94	2153.2536882458
13	390263	95	2153.2536767471
13	390264	96	2153.2536758567
13	390265	97	2153.2536758567
13	390266	98	2153.2536758567
13	390267	99	2153.2536758567
13	390268	100	2153.2536758567
13	390269	101	2153.2536758567
13	390270	102	2153.2536758567
13	390271	103	2153.2536758567
13	390272	104	2153.2536758567
13	390273	105	2153.2536758567
13	390274	106	2153.2536758567
13	390275	107	2153.2536758567
13	390276	108	2153.2536758567
13	390277	109	2153.2536758567
13	390278	110	2153.2536758567
13	390279	111	2153.2536758567
13	390280	112	2153.2536758567
13	390281	113	2153.2536758567
13	390282	114	2153.2536758567
13	390283	115	2153.2536758567
13	390284	116	2153.2536758567
13	390285	117	2153.2536758567
13	390286	118	2153.2536758567
13	390287	119	2153.2536758567
13	390288	120	2153.2536758567
13	390289	121	2153.2536758567
13	390290	122	2153.2536758567
13	390291	123	2153.2536758567
13	390293	124	2153.2446682784
13	390294	125	2152.9413567504
13	390295	126	2151.6318278789
13	390296	127	2148.9509399397
13	390297	128	2144.6220174592
13	390298	129	2138.8476330783
13	390299	130	2132.6942520204
13	390300	131	2122.9517918442
13	390301	132	2114.4143978111
13	390302	133	2104.9243596757
13	390303	134	2095.4087411192
13	390304	135	2085.8931695785
13	390305	136	2076.3804864654
13	390306	137	2066.8634711187
13	390307	138	2057.3251290275
13	390308	139	2047.7869480893
13	390309	140	2037.9017797654
13	390310	141	2027.9183933027
13	390311	142	2017.9301535612
13	390312	143	2007.9337587123
13	390313	144	1997.9515588679
13	390314	145	1987.9406953885
13	390315	146	1977.9333604444
13	390316	147	1967.9477791101
13	390317	148	1957.9507310553
13	390318	149	1947.9573234068
13	390319	150	1937.9631809858
13	390320	151	1928.1664762902
13	390321	152	1918.4440370229
13	390322	153	1908.7158153545
13	390323	154	1898.9847523787
13	390324	155	1889.2510365846
13	390325	156	1879.5250593068
13	390326	157	1869.7946523797
13	390327	158	1860.066388561
13	390328	159	1850.3449809276
13	390329	160	1840.6165928817
13	390330	161	1830.748086529
13	390331	162	1820.6547021765
13	390332	163	1810.5420725994
13	390333	164	1800.530503092
13	390334	165	1790.5737255709
13	390335	166	1780.6218168195
13	390336	167	1770.6811904315
13	390337	168	1760.7506036004
13	390338	169	1750.7981115667
13	390339	170	1740.8503719098
13	390340	171	1730.8997753871
13	390341	172	1720.9540711369
13	390342	173	1710.9969278952
13	390343	174	1701.0471068366
13	390344	175	1691.103940046
13	390345	176	1681.154608109
13	390346	177	1671.1858494742
13	390347	178	1661.2489696345
13	390348	179	1651.2846350997
13	390349	180	1641.3230687403
13	390350	181	1631.3774789728
13	390351	182	1621.4392589681
13	390352	183	1611.6062957367
13	390353	184	1601.8193808206
13	390354	185	1592.0311505896
13	390355	186	1582.2222846993
13	390356	187	1572.4309790027
13	390357	188	1562.6281331312
13	390358	189	1552.4377240313
13	390359	190	1541.909864092
13	390360	191	1531.382153185
13	390361	192	1520.8542167911
13	390362	193	1510.3501546109
13	390363	194	1499.6186632243
13	390364	195	1488.2337184064
13	390365	196	1476.851269873
13	390366	197	1465.4666684809
13	390367	198	1454.0998576893
13	390368	199	1442.2743455621
13	390369	200	1429.7017127573
14	8	7	1578.2124504903
14	9	8	1579.0374362692
14	10	9	1580.5487010712
14	11	10	1584.4052725919
14	12	11	1590.2713509081
14	13	12	1597.5780759836
14	14	13	1606.3489286276
14	15	14	1616.2059281664
14	16	15	1626.1197797433
14	17	16	1636.02727345
14	18	17	1645.9576141089
14	19	18	1657.0198152391
14	20	19	1670.6823148085
14	21	20	1679.8003508439
14	22	21	1689.1340003461
14	23	22	1694.9767562766
14	24	23	1696.8403873192
14	25	24	1698.1415243894
14	26	25	1699.1482518036
14	27	26	1700.0478621488
14	28	27	1700.8539045919
14	29	28	1701.8278781297
14	30	29	1710.4549733223
14	31	30	1721.4081311403
14	32	31	1734.2600482367
14	33	32	1748.0279349582
14	34	33	1761.8843053738
14	35	34	1775.7948059933
14	36	35	1789.7217064165
14	37	36	1803.6253379416
14	38	37	1817.5223842226
14	39	38	1831.3930926556
14	40	39	1845.3174757194
14	41	40	1859.2113164924
14	42	41	1873.1103754425
14	43	42	1887.0178583525
14	44	43	1900.9202154251
14	45	44	1914.8201261219
14	46	45	1928.7164694658
14	47	46	1942.6198389139
14	48	47	1956.4958697036
14	49	48	1970.3913512416
14	50	49	1984.2536928533
14	51	50	1998.128695244
14	52	51	2012.0185645996
14	53	52	2025.8910131454
14	54	53	2039.7929531727
14	55	54	2053.6709235664
14	56	55	2067.5804795874
14	57	56	2081.493704482
14	58	57	2095.3689721925
14	59	58	2108.0378495697
14	60	59	2116.7290023519
14	61	60	2120.9484376432
14	62	61	2120.4780851975
14	63	62	2120.0080082035
14	64	63	2119.5374454707
14	65	64	2119.0670830905
14	66	65	2118.5964365397
14	67	66	2118.1258362457
14	68	67	2117.6551740952
14	69	68	2117.1851945743
14	70	69	2116.7143181292
14	71	70	2116.2447495162
14	72	71	2115.7732626358
14	73	72	2114.6819795137
14	74	73	2112.7285687458
14	76	74	2110.4081738843
14	77	75	2105.9286003895
14	78	76	2101.658065184
14	79	77	2097.9932249235
14	80	78	2093.4143964946
14	81	79	2089.873177655
14	82	80	2087.276182618
14	83	81	2085.5334071899
14	84	82	2084.4952618526
14	85	83	2083.9568802128
14	86	84	2083.7075683912
14	125	85	2083.6055908715
14	126	86	2083.564088271
14	138224	87	2083.5476087993
14	257476	88	2083.5410543922
14	376543	89	2083.5384843173
14	390258	90	2083.5374716185
14	390259	91	2083.5370756304
14	390260	92	2083.5369208725
14	390261	93	2083.536861293
14	390262	94	2083.5368396332
14	390263	95	2083.5368328644
14	390264	96	2083.5368323401
14	390265	97	2083.5368323401
14	390266	98	2083.5368323401
14	390267	99	2083.5368323401
14	390268	100	2083.5368323401
14	390269	101	2083.5368323401
14	390270	102	2083.5368323401
14	390271	103	2083.5368323401
14	390272	104	2083.5368323401
14	390273	105	2083.5368323401
14	390274	106	2083.5368323401
14	390275	107	2083.5368323401
14	390276	108	2083.5368323401
14	390277	109	2083.5368323401
14	390278	110	2083.5368323401
14	390279	111	2083.5368323401
14	390280	112	2083.5368323401
14	390281	113	2083.5368323401
14	390282	114	2083.5368323401
14	390283	115	2083.5368323401
14	390284	116	2083.5368323401
14	390285	117	2083.5368323401
14	390286	118	2083.5368323401
14	390287	119	2083.5368323401
14	390288	120	2083.5368323401
14	390289	121	2083.5368323401
14	390290	122	2083.5368323401
14	390291	123	2083.5368323401
14	390293	124	2083.5315297209
14	390294	125	2083.3529750137
[...]
26	25	24	1662.8112652823
26	26	25	1674.6924241437
26	27	26	1683.6893826453
26	28	27	1692.7962887529
26	29	28	1695.6920182863
26	30	29	1697.3719228143
26	31	30	1698.5663200002
26	32	31	1699.4678848404
26	33	32	1700.346993749
26	34	33	1700.9776863437
26	35	34	1703.8528320221
26	36	35	1713.4565241486
26	37	36	1725.0002151728
26	38	37	1738.4123044088
26	39	38	1752.1797756469
26	40	39	1766.0754554952
26	41	40	1779.9707317939
26	42	41	1793.8743385607
26	43	42	1807.7998500327
26	44	43	1821.7083699293
26	45	44	1835.6043369714
26	46	45	1849.4923872221
26	47	46	1863.3820115495
26	48	47	1877.2837957675
26	49	48	1891.2102853972
26	50	49	1905.1255467124
26	51	50	1918.9993685549
26	52	51	1932.8890656559
26	53	52	1946.7700612806
26	54	53	1960.6532362038
26	55	54	1974.5480977157
26	56	55	1988.4236091701
26	57	56	2002.308265998
26	58	57	2016.1884444943
26	59	58	2030.0605177842
26	60	59	2043.9466001065
26	61	60	2057.8399883052
26	62	61	2071.7555617867
26	63	62	2085.6786326598
26	64	63	2099.4727699291
26	65	64	2111.2883736044
26	66	65	2118.4314654833
26	67	66	2120.8072397746
26	68	67	2120.3368929485
26	69	68	2119.8661597129
26	70	69	2119.3953324538
26	71	70	2118.9244601782
26	72	71	2118.4543968458
26	73	72	2117.9840043029
26	74	73	2117.513284889
26	76	74	2117.0431037126
26	77	75	2116.5725737475
26	78	76	2116.1026278688
26	79	77	2115.6324172653
26	80	78	2114.094631209
26	81	79	2112.1401990829
26	82	80	2109.0540286163
26	83	81	2104.7828237899
26	84	82	2101.213141921
26	85	83	2098.3242870206
26	86	84	2094.8512782315
26	125	85	2092.2928886563
26	126	86	2090.5788884182
26	138224	87	2089.5503899269
26	257476	88	2089.0210276851
26	376543	89	2088.7789271222
26	390258	90	2088.6786593953
26	390259	91	2088.6382678114
26	390260	92	2088.6219609268
26	390261	93	2088.6153624337
26	390262	94	2088.6126862392
26	390263	95	2088.6116270265
26	390264	96	2088.611198592
26	390265	97	2088.6110301912
26	390266	98	2088.610964057
26	390267	99	2088.6109398473
26	390268	100	2088.6109313145
26	390269	101	2088.6109313145
26	390270	102	2088.6109313145
26	390271	103	2088.6109313145
26	390272	104	2088.6109313145
26	390273	105	2088.6109313145
26	390274	106	2088.6109313145
26	390275	107	2088.6109313145
26	390276	108	2088.6109313145
26	390277	109	2088.6109313145
26	390278	110	2088.6109313145
26	390279	111	2088.6109313145
26	390280	112	2088.6109313145
26	390281	113	2088.6109313145
26	390282	114	2088.6109313145
26	390283	115	2088.6109313145
26	390284	116	2088.6109313145
26	390285	117	2088.6109313145
26	390286	118	2088.6109313145
26	390287	119	2088.6109313145
26	390288	120	2088.6109313145
26	390289	121	2088.6109313145
26	390290	122	2088.6109313145
26	390291	123	2088.6109313145
26	390293	124	2088.61089544
26	390294	125	2088.602650716
26	390295	126	2088.475811231
26	390296	127	2087.9301953269
26	390297	128	2086.6605022689
26	390298	129	2084.5379799651
26	390299	130	2081.6936224476
26	390300	131	2078.218546194
26	390301	132	2074.210484405
26	390302	133	2067.4462640658
26	390303	134	2059.2097449005
26	390304	135	2049.5508725103
26	390305	136	2039.3828195445
26	390306	137	2029.2167877834
26	390307	138	2019.0473057181
26	390308	139	2008.8789205914
26	390309	140	1998.7049968559
26	390310	141	1988.5283116484
26	390311	142	1978.3413544083
26	390312	143	1968.6273854505
26	390313	144	1958.9145176914
26	390314	145	1949.1951532634
26	390315	146	1939.4923123457
26	390316	147	1929.7768749688
26	390317	148	1920.0681876456
26	390318	149	1910.3566886298
26	390319	150	1900.6466041198
26	390320	151	1890.9423949756
26	390321	152	1881.2142186649
26	390322	153	1871.5113128563
26	390323	154	1861.5389241595
26	390324	155	1851.5657077897
26	390325	156	1841.6030414049
26	390326	157	1831.6276183352
26	390327	158	1821.6453637118
26	390328	159	1811.6678028302
26	390329	160	1801.6984250359
26	390330	161	1791.7232332788
26	390331	162	1781.7557412107
26	390332	163	1771.7849803967
26	390333	164	1762.0104605835
26	390334	165	1752.3965809792
26	390335	166	1742.8106708722
26	390336	167	1733.0775616718
26	390337	168	1723.3211428644
26	390338	169	1713.5562685551
26	390339	170	1703.8150026165
26	390340	171	1694.0603855103
26	390341	172	1684.29932597
26	390342	173	1674.5591932405
26	390343	174	1664.7989344988
26	390344	175	1655.0569839347
26	390345	176	1645.3101926092
26	390346	177	1635.5426824596
26	390347	178	1625.7853316721
26	390348	179	1616.0464510852
26	390349	180	1606.2860684087
26	390350	181	1596.5253756437
26	390351	182	1586.7800139729
26	390352	183	1577.0501434905
26	390353	184	1567.2985581346
26	390354	185	1557.5410301974
26	390355	186	1547.7844594009
26	390356	187	1537.8725258373
26	390357	188	1527.9609721182
26	390358	189	1518.0417956123
26	390359	190	1508.1272342978
26	390360	191	1498.2197430655
26	390361	192	1488.8905082867
26	390362	193	1479.7737016557
26	390363	194	1470.6493388684
26	390364	195	1461.5116486223
26	390365	196	1452.3812120464
26	390366	197	1443.7632192411
26	390367	198	1435.7269512704
26	390368	199	1427.6927732276
26	390369	200	1419.6605187366
27	15	14	4.1071135824344
27	16	15	6.1728585640954
27	17	16	8.1438460338659
27	18	17	9.9450442699211
27	19	18	11.990837080275
27	20	19	13.719708770091
27	21	20	13.919625025827
27	22	21	13.895716073927
27	23	22	13.903963834392
27	24	23	13.894764900513
27	25	24	13.915038120479
27	26	25	13.961094655516
27	27	26	13.850968166195
27	28	27	13.456581960002
27	29	28	13.190270247142
27	30	29	12.980132059189
27	31	30	11.265334070097
27	32	31	8.8179873361738
27	33	32	9.5872578970569
27	34	33	6.6144176946757
27	35	34	8.7264661690326
27	36	35	10.591035087245
27	37	36	12.575240329389
27	38	37	13.992697958478
27	39	38	13.936582251703
27	40	39	13.977668084782
27	41	40	13.944448827442
27	42	41	13.904405599276
27	43	42	13.904237307077
27	44	43	13.870577735992
27	45	44	13.91562686539
27	46	45	13.935407415566
27	47	46	13.895267462365
27	48	47	13.964951610966
27	49	48	13.981055697401
27	50	49	13.949714473588
27	51	50	13.9261804509
27	52	51	13.91633811252
27	53	52	13.95573048224
27	54	53	13.921962985331
27	55	54	13.967009024217
27	56	55	13.89519388462
27	57	56	13.943711719469
27	58	57	13.917332074845
27	59	58	13.883353462927
27	60	59	13.960233263932
27	61	60	13.871992917536
27	62	61	13.97811899662
27	63	62	13.946223240888
27	64	63	13.919626660964
27	65	64	13.941101441307
27	66	65	13.925128551477
27	67	66	13.938711764624
27	68	67	13.967260484844
27	69	68	13.906206586983
27	70	69	13.993712532967
27	71	70	13.989647400954
27	72	71	13.874248495488
27	73	72	13.990516319459
27	74	73	13.875699244153
27	76	74	13.878478112018
27	77	75	13.977964019247
27	78	76	13.973040370897
27	79	77	13.899651392188
27	80	78	13.878994455035
27	81	79	13.959708831343
27	82	80	13.920217335247
27	83	81	12.340780083257
27	84	82	10.155215415861
27	85	83	8.0139675904335
27	86	84	6.0828829461987
27	125	85	4.219987638285
27	126	86	2.6981672450591
27	138224	87	1.5265368203907
27	257476	88	0.72112454551461
27	376543	89	0.30887803314216
27	390258	90	0.12830028117472
27	390259	91	0.051501369840416
27	390260	92	0.020708430462675
27	390261	93	0.0081692768011338
27	390262	94	0.0034365002746371
27	390263	95	0.0013166235044275
27	390264	96	0.00053661693047566
27	390265	97	0.00020954971980426
27	390266	98	7.9733295912899e-05
27	390267	99	2.8265895797446e-05
27	390268	100	1.0204322452046e-05
27	390269	101	0
27	390270	102	0
27	390271	103	0
27	390272	104	0
27	390273	105	0
27	390274	106	0
27	390275	107	0
27	390276	108	0
27	390277	109	0
27	390278	110	0
27	390279	111	0
27	390280	112	0
27	390281	113	0
27	390282	114	0
27	390283	115	0
27	390284	116	0
27	390285	117	0
27	390286	118	0
27	390287	119	0
27	390288	120	0
27	390289	121	0
27	390290	122	0
27	390291	123	0
27	390293	124	0.00041170118408123
27	390294	125	0.0512200276529
27	390295	126	0.51357136609319
27	390296	127	1.6803020387727
27	390297	128	3.3010489811456
27	390298	129	4.9417330938807
27	390299	130	5.9963381071248
27	390300	131	6.596706805256
27	390301	132	8.3687648710103
27	390302	133	10.235671336235
27	390303	134	12.174934166596
27	390304	135	13.912176871002
27	390305	136	13.920685113647
27	390306	137	13.946317729997
27	390307	138	13.907268285605
27	390308	139	13.886228785291
27	390309	140	13.903289884047
27	390310	141	13.918361302156
27	390311	142	13.909512676056
27	390312	143	13.87055117632
27	390313	144	13.971722894192
27	390314	145	13.980069427199
27	390315	146	13.990667269889
27	390316	147	13.981789327492
27	390317	148	13.962827724591
27	390318	149	13.911722275096
27	390319	150	13.871218099226
27	390320	151	13.939443652187
27	390321	152	13.981993828856
27	390322	153	13.917614203901
27	390323	154	13.908477979472
27	390324	155	13.889180129995
27	390325	156	13.87534674827
27	390326	157	13.904865517656
27	390327	158	13.903444599784
27	390328	159	13.998967196981
27	390329	160	13.924771806151
27	390330	161	13.893096707743
27	390331	162	13.973725439399
27	390332	163	13.871278848583
27	390333	164	13.942092469151
27	390334	165	13.918288855918
27	390335	166	13.917065973321
27	390336	167	13.963919939788
27	390337	168	13.994183698355
27	390338	169	13.992486476924
27	390339	170	13.984982499401
27	390340	171	13.957697272392
27	390341	172	13.906188420744
27	390342	173	13.878059800493
27	390343	174	13.930773664641
27	390344	175	13.993389312066
27	390345	176	13.920328719248
27	390346	177	13.962241288945
27	390347	178	13.898379829049
27	390348	179	13.881623839498
27	390349	180	13.905303521531
27	390350	181	13.916505727321
27	390351	182	13.902902713525
27	390352	183	13.880782265211
27	390353	184	13.98166323534
27	390354	185	13.971667353138
27	390355	186	13.953966123939
27	390356	187	13.945581571984
27	390357	188	13.954284431802
27	390358	189	13.987832484406
27	390359	190	13.882177825021
27	390360	191	13.895434832298
27	390361	192	13.989102778591
27	390362	193	13.946632878154
27	390363	194	13.948313778332
27	390364	195	13.956157674391
27	390365	196	13.944249873322
27	390366	197	13.977951452918
27	390367	198	13.991323246802
27	390368	199	13.997056827773
27	390369	200	13.873640474502
28	16	15	2.065744981661
28	17	16	1.9709874697705
28	18	17	1.8011982360552
28	19	18	2.0457928103534
28	20	19	1.728871689816
28	21	20	0.19991625573645
28	22	21	-0.023908951899504
28	23	22	0.0082477604644389
28	24	23	-0.0091989338793805
28	25	24	0.020273219966331
28	26	25	0.046056535036769
28	27	26	-0.11012648932112
28	28	27	-0.39438620619297
28	29	28	-0.26631171285926
28	30	29	-0.21013818795369
28	31	30	-1.7147979890913
28	32	31	-2.4473467339234
28	33	32	0.76927056088311
28	34	33	-2.9728402023813
28	35	34	2.112048474357
28	36	35	1.8645689182123
28	37	36	1.9842052421439
28	38	37	1.4174576290893
28	39	38	-0.056115706774872
28	40	39	0.041085833078251
28	41	40	-0.03321925733937
28	42	41	-0.040043228166178
28	43	42	-0.00016829219879533
28	44	43	-0.033659571085591
28	45	44	0.04504912939854
28	46	45	0.019780550175346
28	47	46	-0.040139953200706
28	48	47	0.069684148600791
28	49	48	0.016104086434934
28	50	49	-0.031341223812197
28	51	50	-0.0235340226884
28	52	51	-0.0098423383804036
28	53	52	0.039392369720154
28	54	53	-0.033767496908549
28	55	54	0.045046038886065
28	56	55	-0.071815139597748
28	57	56	0.048517834849191
28	58	57	-0.026379644623958
28	59	58	-0.0339786119177
28	60	59	0.076879801005125
28	61	60	-0.088240346396342
28	62	61	0.10612607908435
28	63	62	-0.031895755731966
28	64	63	-0.026596579924226
28	65	64	0.02147478034254
28	66	65	-0.015972889829426
28	67	66	0.013583213146775
28	68	67	0.02854872022057
28	69	68	-0.061053897861857
28	70	69	0.08750594598474
28	71	70	-0.0040651320130571
28	72	71	-0.11539890546585
28	73	72	0.11626782397041
28	74	73	-0.11481707530562
28	76	74	0.0027788678649827
28	77	75	0.099485907228663
28	78	76	-0.0049236483499406
28	79	77	-0.073388978708536
28	80	78	-0.020656937153545
28	81	79	0.080714376308025
28	82	80	-0.039491496095435
28	83	81	-1.5794372519905
28	84	82	-2.1855646673956
28	85	83	-2.1412478254279
28	86	84	-1.9310846442348
28	125	85	-1.8628953079137
28	126	86	-1.5218203932259
28	138224	87	-1.1716304246684
28	257476	88	-0.80541227487607
28	376543	89	-0.41224651237244
28	390258	90	-0.18057775196744
28	390259	91	-0.076798911334308
28	390260	92	-0.030792939377741
28	390261	93	-0.012539153661541
28	390262	94	-0.0047327765264967
28	390263	95	-0.0021198767702096
28	390264	96	-0.00078000657395186
28	390265	97	-0.0003270672106714
28	390266	98	-0.00012981642389136
28	390267	99	-5.1467400115453e-05
28	390268	100	-1.80615733454e-05
28	390269	101	-1.0204322452046e-05
28	390270	102	0
28	390271	103	0
28	390272	104	0
28	390273	105	0
28	390274	106	0
28	390275	107	0
28	390276	108	0
28	390277	109	0
28	390278	110	0
28	390279	111	0
28	390280	112	0
28	390281	113	0
28	390282	114	0
28	390283	115	0
28	390284	116	0
28	390285	117	0
28	390286	118	0
28	390287	119	0
28	390288	120	0
28	390289	121	0
28	390290	122	0
28	390291	123	0
28	390293	124	0.00041170118408123
28	390294	125	0.050808326468819
28	390295	126	0.46235133844029
28	390296	127	1.1667306726795
28	390297	128	1.6207469423729
28	390298	129	1.6406841127351
28	390299	130	1.0546050132441
28	390300	131	0.60036869813116
28	390301	132	1.7720580657543
28	390302	133	1.8669064652245
28	390303	134	1.9392628303613
28	390304	135	1.7372427044057
28	390305	136	0.0085082426457657
28	390306	137	0.02563261634903
28	390307	138	-0.039049444391857
28	390308	139	-0.021039500313346
28	390309	140	0.017061098755804
28	390310	141	0.015071418108418
28	390311	142	-0.008848626099061
28	390312	143	-0.038961499736178
28	390313	144	0.10117171787191
28	390314	145	0.0083465330069874
28	390315	146	0.010597842689604
28	390316	147	-0.0088779423967935
28	390317	148	-0.018961602901108
28	390318	149	-0.051105449495372
28	390319	150	-0.040504175869282
28	390320	151	0.068225552961231
28	390321	152	0.042550176668446
28	390322	153	-0.06437962495489
28	390323	154	-0.0091362244286568
28	390324	155	-0.019297849477734
28	390325	156	-0.013833381724544
28	390326	157	0.029518769385758
28	390327	158	-0.001420917871874
28	390328	159	0.095522597196977
28	390329	160	-0.074195390830281
28	390330	161	-0.031675098408014
28	390331	162	0.080628731655889
28	390332	163	-0.10244659081567
28	390333	164	0.070813620567787
28	390334	165	-0.023803613232449
28	390335	166	-0.0012228825967746
28	390336	167	0.04685396646615
28	390337	168	0.030263758567163
28	390338	169	-0.0016972214309501
28	390339	170	-0.0075039775227204
28	390340	171	-0.02728522700956
28	390341	172	-0.051508851647377
28	390342	173	-0.028128620251081
28	390343	174	0.052713864147663
28	390344	175	0.062615647425408
28	390345	176	-0.073060592818074
28	390346	177	0.041912569697015
28	390347	178	-0.063861459896433
28	390348	179	-0.016755989550148
28	390349	180	0.023679682032672
28	390350	181	0.011202205789742
28	390351	182	-0.013603013795802
28	390352	183	-0.022120448313652
28	390353	184	0.10088097012835
28	390354	185	-0.0099958822014745
28	390355	186	-0.017701229199302
28	390356	187	-0.0083845519553858
28	390357	188	0.008702859818003
28	390358	189	0.03354805260431
28	390359	190	-0.10565465938533
28	390360	191	0.01325700727757
28	390361	192	0.093667946292554
28	390362	193	-0.0424699004367
28	390363	194	0.0016809001774529
28	390364	195	0.0078438960597857
28	390365	196	-0.01190780106932
28	390366	197	0.033701579596382
28	390367	198	0.013371793883852
28	390368	199	0.0057335809711372
28	390369	200	-0.12341635327088
29	16	15	4.5026312293552
29	17	16	5.4211464857185
29	18	17	5.9976452288533
29	19	18	7.7596184513418
29	20	19	7.7268315802883
29	21	20	2.7012744993685
29	22	21	1.9481265904169
29	23	22	2.0566710487361
29	24	23	1.9972938206164
29	25	24	2.0981487439708
29	26	25	2.1898263437766
29	27	26	1.656037594447
29	28	27	0.973
29	29	28	1.1117312632335
29	30	29	1.2808320898995
29	31	30	0.973
29	32	31	0.973
29	33	32	3.4313172861748
29	34	33	0.973
29	35	34	6.03415676873
29	36	35	6.4898566090354
29	37	36	7.9137325716312
29	38	37	6.8181065750216
29	39	38	1.8438824401449
29	40	39	2.1749617238466
29	41	40	1.9215253030621
29	42	41	1.8948956506292
29	43	42	2.0284979073209
29	44	43	1.9131215207367
29	45	44	2.1813017427389
29	46	45	2.0986709290243
29	47	46	1.8937298096107
29	48	47	2.2697836076626
29	49	48	2.0911677971369
29	50	49	1.928334752794
29	51	50	1.9523127992135
29	52	51	1.9972848847099
29	53	52	2.1668045947882
29	54	53	1.9175713775484
29	55	54	2.1870955340649
29	56	55	1.7876510165595
29	57	56	2.1961280730621
29	58	57	1.9419164280388
29	59	58	1.9132485289613
29	60	59	2.2934309978172
29	61	60	1.7307820381704
29	62	61	2.3941151681897
29	63	62	1.926140669444
29	64	63	1.9414079852085
29	65	64	2.1049716069865
29	66	65	1.9775863180264
29	67	66	2.0782056834174
29	68	67	2.1315922037348
29	69	68	1.8246465886349
29	70	69	2.3333154309031
29	71	70	2.0240806995056
29	72	71	1.6401532819057
29	73	72	2.4298972610548
29	74	73	1.642205986124
29	76	74	2.0357361571706
29	77	75	2.3717266604541
29	78	76	2.0195051189486
29	79	77	1.7827554185113
29	80	78	1.9574000114086
29	81	79	2.3062682812988
29	82	80	1.8982049033782
29	83	81	0.973
29	84	82	0.973
29	85	83	0.973
29	86	84	0.973
29	125	85	0.973
29	126	86	0.973
29	138224	87	0.973
29	257476	88	0.973
29	376543	89	0.973
29	390258	90	0.973
29	390259	91	1.1115312236585
29	390260	92	1.1108452962059
29	390261	93	1.1103693989313
29	390262	94	1.1101618571077
29	390263	95	1.1100628412679
29	390264	96	1.1100257855266
29	390265	97	1.1100100921611
29	390266	98	1.1100038438397
29	390267	99	1.1100013631962
29	390268	100	1.1100004922121
29	390269	101	0.973
29	390270	102	0.973
29	390271	103	0.973
29	390272	104	0.973
29	390273	105	0.973
29	390274	106	0.973
29	390275	107	0.973
29	390276	108	0.973
29	390277	109	0.973
29	390278	110	0.973
29	390279	111	0.973
29	390280	112	0.973
29	390281	113	0.973
29	390282	114	0.973
29	390283	115	0.973
29	390284	116	0.973
29	390285	117	0.973
29	390286	118	0.973
29	390287	119	0.973
29	390288	120	0.973
29	390289	121	0.973
29	390290	122	0.973
29	390291	123	0.973
29	390293	124	1.1100199013141
29	390294	125	1.1130980458841
29	390295	126	1.1920127445417
29	390296	127	1.6639668759467
29	390297	128	2.5619553648299
29	390298	129	3.3135228905875
29	390299	130	2.9432088194121
29	390300	131	2.4092139215859
29	390301	132	5.1418689088932
29	390302	133	6.3081129945153
29	390303	134	7.5541387577636
29	390304	135	7.8545579693848
29	390305	136	2.0592817470724
29	390306	137	2.1195060527687
29	390307	138	1.8984903504665
29	390308	139	1.9568190998134
29	390309	140	2.0861318815672
29	390310	141	2.081055125888
29	390311	142	1.9999367786217
29	390312	143	1.895395736697
29	390313	144	2.3766145943223
29	390314	145	2.0649262436681
29	390315	146	2.0736241158516
29	390316	147	2.0070660540894
29	390317	148	1.971234079564
29	390318	149	1.8584816416179
29	390319	150	1.8903000980592
29	390320	151	2.2618485954085
29	390321	152	2.180381863294
29	390322	153	1.8144859441695
29	390323	154	1.9988695829552
29	390324	155	1.9629340744352
29	390325	156	1.979865214639
29	390326	157	2.1280453449924
29	390327	158	2.0242200192391
29	390328	159	2.3610111946796
29	390329	160	1.7821641664005
29	390330	161	1.9218722888321
29	390331	162	2.3076864224774
29	390332	163	1.6832335320424
29	390333	164	2.2708586145181
29	390334	165	1.9506486648994
29	390335	166	2.0262671035506
29	390336	167	2.192830239948
29	390337	168	2.1403187649743
29	390338	169	2.0323539360937
29	390339	170	2.0120170832303
29	390340	171	1.9427338825119
29	390341	172	1.8566341918897
29	390342	173	1.932319800554
29	390343	174	2.2087435645393
29	390344	175	2.2493352688308
29	390345	176	1.7855976184342
29	390346	177	2.1760122981099
29	390347	178	1.8145610063292
29	390348	179	1.9707046646993
29	390349	180	2.1085252386516
29	390350	181	2.0678824003074
29	390351	182	1.9833477101812
29	390352	183	1.9526769697539
29	390353	184	2.3768949385179
29	390354	185	2.002287144453
29	390355	186	1.9746071144906
29	390356	187	2.0050985177768
29	390357	188	2.0634347792941
29	390358	189	2.1506930895379
29	390359	190	1.6733389166542
29	390360	191	2.0725609506509
29	390361	192	2.3535201587759
29	390362	193	1.8906381974258
29	390363	194	2.039207542375
29	390364	195	2.0607411079142
29	390365	196	1.9931250945164
29	390366	197	2.1501183092633
29	390367	198	2.0830465323672
29	390368	199	2.0578868675111
29	390369	200	1.6133017094412

