version 2
run WithBeaconing-0-20230724-02:27:24-27110
attr configname WithBeaconing
attr datetime 20230724-02:27:24
attr experiment WithBeaconing
attr inifile omnetpp_savs_rsu.ini
attr iterationvars ""
attr iterationvarsf ""
attr measurement ""
attr network SingleAttackerV2VRSUScenario
attr processid 27110
attr repetition 0
attr replication #0
attr resultdir results
attr runnumber 0
attr seedset 0
param *.node[*].appl.sendBeacons true
param *.rsu[*].appl.sendBeacons true
param *.scenarioManager.script "xmldoc(\"scenario.xml\")"
param *.playgroundSizeX 2500m
param *.playgroundSizeY 2500m
param *.playgroundSizeZ 50m
param **.hasStatus true
param *.annotations.draw true
param *.obstacles.obstacles "xmldoc(\"config.xml\", \"//AnalogueModel[@type='SimpleObstacleShadowing']/obstacles\")"
param *.manager.updateInterval 1s
param *.manager.host "\"localhost\""
param *.manager.port 9999
param *.manager.autoShutdown true
param *.manager.launchConfig "xmldoc(\"erlangen.launchd.xml\")"
param *.rsu[0].mobility.x 2000
param *.rsu[0].mobility.y 2000
param *.rsu[0].mobility.z 3
param *.rsu[*].applType "\"TraCIDemoRSU11p\""
param *.rsu[*].appl.headerLength "80 bit"
param *.rsu[*].appl.sendBeacons false
param *.rsu[*].appl.dataOnSch false
param *.rsu[*].appl.beaconInterval 1s
param *.rsu[*].appl.beaconUserPriority 7
param *.rsu[*].appl.dataUserPriority 5
param *.rsu[*].nic.phy80211p.antennaOffsetZ "0 m"
param *.connectionManager.sendDirect true
param *.connectionManager.maxInterfDist 2600m
param *.connectionManager.drawMaxIntfDist false
param *.**.nic.mac1609_4.useServiceChannel false
param *.**.nic.mac1609_4.txPower 20mW
param *.**.nic.mac1609_4.bitrate 6Mbps
param *.**.nic.phy80211p.minPowerLevel -110dBm
param *.**.nic.mac1609_4.useAcks true
param *.**.nic.phy80211p.useNoiseFloor true
param *.**.nic.phy80211p.noiseFloor -98dBm
param *.**.nic.phy80211p.decider "xmldoc(\"config.xml\")"
param *.**.nic.phy80211p.analogueModels "xmldoc(\"config.xml\")"
param *.**.nic.phy80211p.usePropagationDelay true
param *.**.nic.phy80211p.antenna "xmldoc(\"antenna.xml\", \"/root/Antenna[@id='monopole']\")"
param *.node[*].nic.phy80211p.antennaOffsetY "0 m"
param *.node[*].nic.phy80211p.antennaOffsetZ "1.895 m"
param *.attacker[*].nic.phy80211p.antennaOffsetY "0 m"
param *.attacker[*].nic.phy80211p.antennaOffsetZ "1.895 m"
param *.manager.moduleType "\"vtype1=org.car2x.veins.nodes.Car *=org.car2x.veins.nodes.Car\""
param *.manager.moduleName "\"vtype1=attacker *=node\""
param *.node[*].applType "\"TraCIDemo11p\""
param *.node[*].appl.headerLength "80 bit"
param *.node[*].appl.sendBeacons true
param *.node[*].appl.dataOnSch false
param *.node[*].appl.beaconInterval 1s
param *.attacker[*].applType "\"TraCIV2Vp\""
param *.attacker[*].appl.headerLength "80 bit"
param *.attacker[*].appl.sendBeacons true
param *.attacker[*].appl.dataOnSch false
param *.attacker[*].appl.beaconInterval 1s
param *.node[*].veinsmobility.x 0
param *.node[*].veinsmobility.y 0
param *.node[*].veinsmobility.z 0
param *.node[*].veinsmobility.setHostSpeed false
param *.attacker[*].veinsmobility.x 0
param *.attacker[*].veinsmobility.y 0
param *.attacker[*].veinsmobility.z 0
param *.attacker[*].veinsmobility.setHostSpeed false

scalar SingleAttackerV2VRSUScenario.attacker[19].status nodeStatusData:count 0
attr source nodeStatusChanged
scalar SingleAttackerV2VRSUScenario.attacker[19].appl generatedWSMs 690000
scalar SingleAttackerV2VRSUScenario.attacker[19].appl receivedWSMs 22143
scalar SingleAttackerV2VRSUScenario.attacker[19].appl generatedBSMs 26
scalar SingleAttackerV2VRSUScenario.attacker[19].appl receivedBSMs 144
scalar SingleAttackerV2VRSUScenario.attacker[19].appl generatedWSAs 0
scalar SingleAttackerV2VRSUScenario.attacker[19].appl receivedWSAs 0
scalar SingleAttackerV2VRSUScenario.attacker[19].nic.phy80211p busyTime 0.20063846153838
scalar SingleAttackerV2VRSUScenario.attacker[19].nic.mac1609_4 ReceivedUnicastPackets 0
scalar SingleAttackerV2VRSUScenario.attacker[19].nic.mac1609_4 ReceivedBroadcasts 22287
scalar SingleAttackerV2VRSUScenario.attacker[19].nic.mac1609_4 SentPackets 57144
scalar SingleAttackerV2VRSUScenario.attacker[19].nic.mac1609_4 SentAcknowledgements 0
scalar SingleAttackerV2VRSUScenario.attacker[19].nic.mac1609_4 RetriesExceeded 0
scalar SingleAttackerV2VRSUScenario.attacker[19].nic.mac1609_4 SNIRLostPackets 277
scalar SingleAttackerV2VRSUScenario.attacker[19].nic.mac1609_4 RXTXLostPackets 15762
scalar SingleAttackerV2VRSUScenario.attacker[19].nic.mac1609_4 TotalLostPackets 16039
scalar SingleAttackerV2VRSUScenario.attacker[19].nic.mac1609_4 DroppedPacketsInMac 0
scalar SingleAttackerV2VRSUScenario.attacker[19].nic.mac1609_4 TooLittleTime 0
scalar SingleAttackerV2VRSUScenario.attacker[19].nic.mac1609_4 TimesIntoBackoff 57143
scalar SingleAttackerV2VRSUScenario.attacker[19].nic.mac1609_4 SlotsBackoff 85452
scalar SingleAttackerV2VRSUScenario.attacker[19].nic.mac1609_4 NumInternalContention 0
scalar SingleAttackerV2VRSUScenario.attacker[19].nic.mac1609_4 totalBusyTime 18.502095
scalar SingleAttackerV2VRSUScenario.attacker[19].nic.mac1609_4 NodeDownCount 0
scalar SingleAttackerV2VRSUScenario.attacker[19].nic.mac1609_4 retriesExceeded:count 0
attr source org_car2x_veins_modules_mac_sigRetriesExceeded
scalar SingleAttackerV2VRSUScenario.attacker[19].nic.mac1609_4 sentAcks:count 0
attr source org_car2x_veins_modules_mac_sigSentAck
scalar SingleAttackerV2VRSUScenario.attacker[19].nic.mac1609_4 sentPackets:count 57144
attr source org_car2x_veins_modules_mac_sigSentPacket
scalar SingleAttackerV2VRSUScenario.attacker[19].nic.mac1609_4 collisions:count 0
attr source org_car2x_veins_modules_mac_sigCollision
scalar SingleAttackerV2VRSUScenario.attacker[19].nic.mac1609_4 channelBusy:timeavg 0.71162719941675
attr source org_car2x_veins_modules_mac_sigChannelBusy
scalar SingleAttackerV2VRSUScenario.attacker[19].veinsmobility startTime 57
scalar SingleAttackerV2VRSUScenario.attacker[19].veinsmobility totalTime 25
scalar SingleAttackerV2VRSUScenario.attacker[19].veinsmobility stopTime 83
scalar SingleAttackerV2VRSUScenario.attacker[19].veinsmobility minSpeed 3.2022692176314
scalar SingleAttackerV2VRSUScenario.attacker[19].veinsmobility maxSpeed 13.998651232829
scalar SingleAttackerV2VRSUScenario.attacker[19].veinsmobility totalDistance 306.5760273435
scalar SingleAttackerV2VRSUScenario.attacker[19].veinsmobility totalCO2Emission 71.255618900282
scalar SingleAttackerV2VRSUScenario.manager roiArea 0
scalar SingleAttackerV2VRSUScenario.nodeStatusTracker nodeStatusData:count 0
attr source nodeStatusChanged
scalar SingleAttackerV2VRSUScenario.rsu[0].appl generatedWSMs 41256
scalar SingleAttackerV2VRSUScenario.rsu[0].appl receivedWSMs 41256
scalar SingleAttackerV2VRSUScenario.rsu[0].appl generatedBSMs 200
scalar SingleAttackerV2VRSUScenario.rsu[0].appl receivedBSMs 1313
scalar SingleAttackerV2VRSUScenario.rsu[0].appl generatedWSAs 0
scalar SingleAttackerV2VRSUScenario.rsu[0].appl receivedWSAs 0
scalar SingleAttackerV2VRSUScenario.rsu[0].nic.phy80211p busyTime 0.049217839999983
scalar SingleAttackerV2VRSUScenario.rsu[0].nic.mac1609_4 ReceivedUnicastPackets 0
scalar SingleAttackerV2VRSUScenario.rsu[0].nic.mac1609_4 ReceivedBroadcasts 42569
scalar SingleAttackerV2VRSUScenario.rsu[0].nic.mac1609_4 SentPackets 41456
scalar SingleAttackerV2VRSUScenario.rsu[0].nic.mac1609_4 SentAcknowledgements 0
scalar SingleAttackerV2VRSUScenario.rsu[0].nic.mac1609_4 RetriesExceeded 0
scalar SingleAttackerV2VRSUScenario.rsu[0].nic.mac1609_4 SNIRLostPackets 942
scalar SingleAttackerV2VRSUScenario.rsu[0].nic.mac1609_4 RXTXLostPackets 15732
scalar SingleAttackerV2VRSUScenario.rsu[0].nic.mac1609_4 TotalLostPackets 16674
scalar SingleAttackerV2VRSUScenario.rsu[0].nic.mac1609_4 DroppedPacketsInMac 0
scalar SingleAttackerV2VRSUScenario.rsu[0].nic.mac1609_4 TooLittleTime 0
scalar SingleAttackerV2VRSUScenario.rsu[0].nic.mac1609_4 TimesIntoBackoff 44959
scalar SingleAttackerV2VRSUScenario.rsu[0].nic.mac1609_4 SlotsBackoff 67455
scalar SingleAttackerV2VRSUScenario.rsu[0].nic.mac1609_4 NumInternalContention 0
scalar SingleAttackerV2VRSUScenario.rsu[0].nic.mac1609_4 totalBusyTime 19.456008
scalar SingleAttackerV2VRSUScenario.rsu[0].nic.mac1609_4 NodeDownCount 0
scalar SingleAttackerV2VRSUScenario.rsu[0].nic.mac1609_4 retriesExceeded:count 0
attr source org_car2x_veins_modules_mac_sigRetriesExceeded
scalar SingleAttackerV2VRSUScenario.rsu[0].nic.mac1609_4 sentAcks:count 0
attr source org_car2x_veins_modules_mac_sigSentAck
scalar SingleAttackerV2VRSUScenario.rsu[0].nic.mac1609_4 sentPackets:count 41456
attr source org_car2x_veins_modules_mac_sigSentPacket
scalar SingleAttackerV2VRSUScenario.rsu[0].nic.mac1609_4 collisions:count 0
attr source org_car2x_veins_modules_mac_sigCollision
scalar SingleAttackerV2VRSUScenario.rsu[0].nic.mac1609_4 channelBusy:timeavg 0.097280040000071
attr source org_car2x_veins_modules_mac_sigChannelBusy
scalar SingleAttackerV2VRSUScenario.node[0].status nodeStatusData:count 0
attr source nodeStatusChanged
scalar SingleAttackerV2VRSUScenario.node[0].appl generatedWSMs 1
scalar SingleAttackerV2VRSUScenario.node[0].appl receivedWSMs 69629
scalar SingleAttackerV2VRSUScenario.node[0].appl generatedBSMs 199
scalar SingleAttackerV2VRSUScenario.node[0].appl receivedBSMs 937
scalar SingleAttackerV2VRSUScenario.node[0].appl generatedWSAs 0
scalar SingleAttackerV2VRSUScenario.node[0].appl receivedWSAs 0
scalar SingleAttackerV2VRSUScenario.node[0].nic.phy80211p busyTime 0.1153439195981
scalar SingleAttackerV2VRSUScenario.node[0].nic.mac1609_4 ReceivedUnicastPackets 0
scalar SingleAttackerV2VRSUScenario.node[0].nic.mac1609_4 ReceivedBroadcasts 70566
scalar SingleAttackerV2VRSUScenario.node[0].nic.mac1609_4 SentPackets 200
scalar SingleAttackerV2VRSUScenario.node[0].nic.mac1609_4 SentAcknowledgements 0
scalar SingleAttackerV2VRSUScenario.node[0].nic.mac1609_4 RetriesExceeded 0
scalar SingleAttackerV2VRSUScenario.node[0].nic.mac1609_4 SNIRLostPackets 29045
scalar SingleAttackerV2VRSUScenario.node[0].nic.mac1609_4 RXTXLostPackets 19
scalar SingleAttackerV2VRSUScenario.node[0].nic.mac1609_4 TotalLostPackets 29064
scalar SingleAttackerV2VRSUScenario.node[0].nic.mac1609_4 DroppedPacketsInMac 0
scalar SingleAttackerV2VRSUScenario.node[0].nic.mac1609_4 TooLittleTime 0
scalar SingleAttackerV2VRSUScenario.node[0].nic.mac1609_4 TimesIntoBackoff 220
scalar SingleAttackerV2VRSUScenario.node[0].nic.mac1609_4 SlotsBackoff 327
scalar SingleAttackerV2VRSUScenario.node[0].nic.mac1609_4 NumInternalContention 0
scalar SingleAttackerV2VRSUScenario.node[0].nic.mac1609_4 totalBusyTime 19.329584
scalar SingleAttackerV2VRSUScenario.node[0].nic.mac1609_4 NodeDownCount 0
scalar SingleAttackerV2VRSUScenario.node[0].nic.mac1609_4 retriesExceeded:count 0
attr source org_car2x_veins_modules_mac_sigRetriesExceeded
scalar SingleAttackerV2VRSUScenario.node[0].nic.mac1609_4 sentAcks:count 0
attr source org_car2x_veins_modules_mac_sigSentAck
scalar SingleAttackerV2VRSUScenario.node[0].nic.mac1609_4 sentPackets:count 200
attr source org_car2x_veins_modules_mac_sigSentPacket
scalar SingleAttackerV2VRSUScenario.node[0].nic.mac1609_4 collisions:count 0
attr source org_car2x_veins_modules_mac_sigCollision
scalar SingleAttackerV2VRSUScenario.node[0].nic.mac1609_4 channelBusy:timeavg 0.097133587939774
attr source org_car2x_veins_modules_mac_sigChannelBusy
scalar SingleAttackerV2VRSUScenario.node[0].veinsmobility startTime 1
scalar SingleAttackerV2VRSUScenario.node[0].veinsmobility totalTime 199
scalar SingleAttackerV2VRSUScenario.node[0].veinsmobility stopTime 200
scalar SingleAttackerV2VRSUScenario.node[0].veinsmobility minSpeed 4.1061966058897
scalar SingleAttackerV2VRSUScenario.node[0].veinsmobility maxSpeed 13.999815066161
scalar SingleAttackerV2VRSUScenario.node[0].veinsmobility totalDistance 2693.6151056938
scalar SingleAttackerV2VRSUScenario.node[0].veinsmobility totalCO2Emission 456.13060837011
scalar SingleAttackerV2VRSUScenario.node[1].status nodeStatusData:count 0
attr source nodeStatusChanged
scalar SingleAttackerV2VRSUScenario.node[1].appl generatedWSMs 1
scalar SingleAttackerV2VRSUScenario.node[1].appl receivedWSMs 73910
scalar SingleAttackerV2VRSUScenario.node[1].appl generatedBSMs 196
scalar SingleAttackerV2VRSUScenario.node[1].appl receivedBSMs 969
scalar SingleAttackerV2VRSUScenario.node[1].appl generatedWSAs 0
scalar SingleAttackerV2VRSUScenario.node[1].appl receivedWSAs 0
scalar SingleAttackerV2VRSUScenario.node[1].nic.phy80211p busyTime 0.11716240816338
scalar SingleAttackerV2VRSUScenario.node[1].nic.mac1609_4 ReceivedUnicastPackets 0
scalar SingleAttackerV2VRSUScenario.node[1].nic.mac1609_4 ReceivedBroadcasts 74879
scalar SingleAttackerV2VRSUScenario.node[1].nic.mac1609_4 SentPackets 197
scalar SingleAttackerV2VRSUScenario.node[1].nic.mac1609_4 SentAcknowledgements 0
scalar SingleAttackerV2VRSUScenario.node[1].nic.mac1609_4 RetriesExceeded 0
scalar SingleAttackerV2VRSUScenario.node[1].nic.mac1609_4 SNIRLostPackets 24828
scalar SingleAttackerV2VRSUScenario.node[1].nic.mac1609_4 RXTXLostPackets 16
scalar SingleAttackerV2VRSUScenario.node[1].nic.mac1609_4 TotalLostPackets 24844
scalar SingleAttackerV2VRSUScenario.node[1].nic.mac1609_4 DroppedPacketsInMac 0
scalar SingleAttackerV2VRSUScenario.node[1].nic.mac1609_4 TooLittleTime 0
scalar SingleAttackerV2VRSUScenario.node[1].nic.mac1609_4 TimesIntoBackoff 218
scalar SingleAttackerV2VRSUScenario.node[1].nic.mac1609_4 SlotsBackoff 314
scalar SingleAttackerV2VRSUScenario.node[1].nic.mac1609_4 NumInternalContention 0
scalar SingleAttackerV2VRSUScenario.node[1].nic.mac1609_4 totalBusyTime 19.335565
scalar SingleAttackerV2VRSUScenario.node[1].nic.mac1609_4 NodeDownCount 0
scalar SingleAttackerV2VRSUScenario.node[1].nic.mac1609_4 retriesExceeded:count 0
attr source org_car2x_veins_modules_mac_sigRetriesExceeded
scalar SingleAttackerV2VRSUScenario.node[1].nic.mac1609_4 sentAcks:count 0
attr source org_car2x_veins_modules_mac_sigSentAck
scalar SingleAttackerV2VRSUScenario.node[1].nic.mac1609_4 sentPackets:count 197
attr source org_car2x_veins_modules_mac_sigSentPacket
scalar SingleAttackerV2VRSUScenario.node[1].nic.mac1609_4 collisions:count 0
attr source org_car2x_veins_modules_mac_sigCollision
scalar SingleAttackerV2VRSUScenario.node[1].nic.mac1609_4 channelBusy:timeavg 0.098650841836812
attr source org_car2x_veins_modules_mac_sigChannelBusy
scalar SingleAttackerV2VRSUScenario.node[1].veinsmobility startTime 4
scalar SingleAttackerV2VRSUScenario.node[1].veinsmobility totalTime 196
scalar SingleAttackerV2VRSUScenario.node[1].veinsmobility stopTime 200
scalar SingleAttackerV2VRSUScenario.node[1].veinsmobility minSpeed 4.0332649588119
scalar SingleAttackerV2VRSUScenario.node[1].veinsmobility maxSpeed 13.994584853351
scalar SingleAttackerV2VRSUScenario.node[1].veinsmobility totalDistance 2648.1643652978
scalar SingleAttackerV2VRSUScenario.node[1].veinsmobility totalCO2Emission 446.29184830564
scalar SingleAttackerV2VRSUScenario.node[2].status nodeStatusData:count 0
attr source nodeStatusChanged
scalar SingleAttackerV2VRSUScenario.node[2].appl generatedWSMs 1
scalar SingleAttackerV2VRSUScenario.node[2].appl receivedWSMs 76185
scalar SingleAttackerV2VRSUScenario.node[2].appl generatedBSMs 193
scalar SingleAttackerV2VRSUScenario.node[2].appl receivedBSMs 990
scalar SingleAttackerV2VRSUScenario.node[2].appl generatedWSAs 0
scalar SingleAttackerV2VRSUScenario.node[2].appl receivedWSAs 0
scalar SingleAttackerV2VRSUScenario.node[2].nic.phy80211p busyTime 0.11902698445607
scalar SingleAttackerV2VRSUScenario.node[2].nic.mac1609_4 ReceivedUnicastPackets 0
scalar SingleAttackerV2VRSUScenario.node[2].nic.mac1609_4 ReceivedBroadcasts 77175
scalar SingleAttackerV2VRSUScenario.node[2].nic.mac1609_4 SentPackets 194
scalar SingleAttackerV2VRSUScenario.node[2].nic.mac1609_4 SentAcknowledgements 0
scalar SingleAttackerV2VRSUScenario.node[2].nic.mac1609_4 RetriesExceeded 0
scalar SingleAttackerV2VRSUScenario.node[2].nic.mac1609_4 SNIRLostPackets 22615
scalar SingleAttackerV2VRSUScenario.node[2].nic.mac1609_4 RXTXLostPackets 19
scalar SingleAttackerV2VRSUScenario.node[2].nic.mac1609_4 TotalLostPackets 22634
scalar SingleAttackerV2VRSUScenario.node[2].nic.mac1609_4 DroppedPacketsInMac 0
scalar SingleAttackerV2VRSUScenario.node[2].nic.mac1609_4 TooLittleTime 0
scalar SingleAttackerV2VRSUScenario.node[2].nic.mac1609_4 TimesIntoBackoff 218
scalar SingleAttackerV2VRSUScenario.node[2].nic.mac1609_4 SlotsBackoff 298
scalar SingleAttackerV2VRSUScenario.node[2].nic.mac1609_4 NumInternalContention 0
scalar SingleAttackerV2VRSUScenario.node[2].nic.mac1609_4 totalBusyTime 19.341314
scalar SingleAttackerV2VRSUScenario.node[2].nic.mac1609_4 NodeDownCount 0
scalar SingleAttackerV2VRSUScenario.node[2].nic.mac1609_4 retriesExceeded:count 0
attr source org_car2x_veins_modules_mac_sigRetriesExceeded
scalar SingleAttackerV2VRSUScenario.node[2].nic.mac1609_4 sentAcks:count 0
attr source org_car2x_veins_modules_mac_sigSentAck
scalar SingleAttackerV2VRSUScenario.node[2].nic.mac1609_4 sentPackets:count 194
attr source org_car2x_veins_modules_mac_sigSentPacket
scalar SingleAttackerV2VRSUScenario.node[2].nic.mac1609_4 collisions:count 0
attr source org_car2x_veins_modules_mac_sigCollision
scalar SingleAttackerV2VRSUScenario.node[2].nic.mac1609_4 channelBusy:timeavg 0.10021406217624
attr source org_car2x_veins_modules_mac_sigChannelBusy
scalar SingleAttackerV2VRSUScenario.node[2].veinsmobility startTime 7
scalar SingleAttackerV2VRSUScenario.node[2].veinsmobility totalTime 193
scalar SingleAttackerV2VRSUScenario.node[2].veinsmobility stopTime 200
scalar SingleAttackerV2VRSUScenario.node[2].veinsmobility minSpeed 3.930963162637
scalar SingleAttackerV2VRSUScenario.node[2].veinsmobility maxSpeed 13.998553946475
scalar SingleAttackerV2VRSUScenario.node[2].veinsmobility totalDistance 2609.0901000647
scalar SingleAttackerV2VRSUScenario.node[2].veinsmobility totalCO2Emission 440.30417574112
scalar SingleAttackerV2VRSUScenario.node[3].status nodeStatusData:count 0
attr source nodeStatusChanged
scalar SingleAttackerV2VRSUScenario.node[3].appl generatedWSMs 1
scalar SingleAttackerV2VRSUScenario.node[3].appl receivedWSMs 75701
scalar SingleAttackerV2VRSUScenario.node[3].appl generatedBSMs 190
scalar SingleAttackerV2VRSUScenario.node[3].appl receivedBSMs 1043
scalar SingleAttackerV2VRSUScenario.node[3].appl generatedWSAs 0
scalar SingleAttackerV2VRSUScenario.node[3].appl receivedWSAs 0
scalar SingleAttackerV2VRSUScenario.node[3].nic.phy80211p busyTime 0.11860762105274
scalar SingleAttackerV2VRSUScenario.node[3].nic.mac1609_4 ReceivedUnicastPackets 0
scalar SingleAttackerV2VRSUScenario.node[3].nic.mac1609_4 ReceivedBroadcasts 76744
scalar SingleAttackerV2VRSUScenario.node[3].nic.mac1609_4 SentPackets 191
scalar SingleAttackerV2VRSUScenario.node[3].nic.mac1609_4 SentAcknowledgements 0
scalar SingleAttackerV2VRSUScenario.node[3].nic.mac1609_4 RetriesExceeded 0
scalar SingleAttackerV2VRSUScenario.node[3].nic.mac1609_4 SNIRLostPackets 21239
scalar SingleAttackerV2VRSUScenario.node[3].nic.mac1609_4 RXTXLostPackets 13
scalar SingleAttackerV2VRSUScenario.node[3].nic.mac1609_4 TotalLostPackets 21252
scalar SingleAttackerV2VRSUScenario.node[3].nic.mac1609_4 DroppedPacketsInMac 0
scalar SingleAttackerV2VRSUScenario.node[3].nic.mac1609_4 TooLittleTime 0
scalar SingleAttackerV2VRSUScenario.node[3].nic.mac1609_4 TimesIntoBackoff 211
scalar SingleAttackerV2VRSUScenario.node[3].nic.mac1609_4 SlotsBackoff 298
scalar SingleAttackerV2VRSUScenario.node[3].nic.mac1609_4 NumInternalContention 0
scalar SingleAttackerV2VRSUScenario.node[3].nic.mac1609_4 totalBusyTime 19.106740857775
scalar SingleAttackerV2VRSUScenario.node[3].nic.mac1609_4 NodeDownCount 0
scalar SingleAttackerV2VRSUScenario.node[3].nic.mac1609_4 retriesExceeded:count 0
attr source org_car2x_veins_modules_mac_sigRetriesExceeded
scalar SingleAttackerV2VRSUScenario.node[3].nic.mac1609_4 sentAcks:count 0
attr source org_car2x_veins_modules_mac_sigSentAck
scalar SingleAttackerV2VRSUScenario.node[3].nic.mac1609_4 sentPackets:count 191
attr source org_car2x_veins_modules_mac_sigSentPacket
scalar SingleAttackerV2VRSUScenario.node[3].nic.mac1609_4 collisions:count 0
attr source org_car2x_veins_modules_mac_sigCollision
scalar SingleAttackerV2VRSUScenario.node[3].nic.mac1609_4 channelBusy:timeavg 0.10056179398836
attr source org_car2x_veins_modules_mac_sigChannelBusy
scalar SingleAttackerV2VRSUScenario.node[3].veinsmobility startTime 10
scalar SingleAttackerV2VRSUScenario.node[3].veinsmobility totalTime 190
scalar SingleAttackerV2VRSUScenario.node[3].veinsmobility stopTime 200
scalar SingleAttackerV2VRSUScenario.node[3].veinsmobility minSpeed 4.0076977833542
scalar SingleAttackerV2VRSUScenario.node[3].veinsmobility maxSpeed 13.999527041174
scalar SingleAttackerV2VRSUScenario.node[3].veinsmobility totalDistance 2537.3337732551
scalar SingleAttackerV2VRSUScenario.node[3].veinsmobility totalCO2Emission 434.48344988969
scalar SingleAttackerV2VRSUScenario.node[4].status nodeStatusData:count 0
attr source nodeStatusChanged
scalar SingleAttackerV2VRSUScenario.node[4].appl generatedWSMs 1
scalar SingleAttackerV2VRSUScenario.node[4].appl receivedWSMs 43135
scalar SingleAttackerV2VRSUScenario.node[4].appl generatedBSMs 187
scalar SingleAttackerV2VRSUScenario.node[4].appl receivedBSMs 3210
scalar SingleAttackerV2VRSUScenario.node[4].appl generatedWSAs 0
scalar SingleAttackerV2VRSUScenario.node[4].appl receivedWSAs 0
scalar SingleAttackerV2VRSUScenario.node[4].nic.phy80211p busyTime 0.055611080213892
scalar SingleAttackerV2VRSUScenario.node[4].nic.mac1609_4 ReceivedUnicastPackets 0
scalar SingleAttackerV2VRSUScenario.node[4].nic.mac1609_4 ReceivedBroadcasts 46345
scalar SingleAttackerV2VRSUScenario.node[4].nic.mac1609_4 SentPackets 188
scalar SingleAttackerV2VRSUScenario.node[4].nic.mac1609_4 SentAcknowledgements 0
scalar SingleAttackerV2VRSUScenario.node[4].nic.mac1609_4 RetriesExceeded 0
scalar SingleAttackerV2VRSUScenario.node[4].nic.mac1609_4 SNIRLostPackets 400
scalar SingleAttackerV2VRSUScenario.node[4].nic.mac1609_4 RXTXLostPackets 5
scalar SingleAttackerV2VRSUScenario.node[4].nic.mac1609_4 TotalLostPackets 405
scalar SingleAttackerV2VRSUScenario.node[4].nic.mac1609_4 DroppedPacketsInMac 0
scalar SingleAttackerV2VRSUScenario.node[4].nic.mac1609_4 TooLittleTime 0
scalar SingleAttackerV2VRSUScenario.node[4].nic.mac1609_4 TimesIntoBackoff 201
scalar SingleAttackerV2VRSUScenario.node[4].nic.mac1609_4 SlotsBackoff 318
scalar SingleAttackerV2VRSUScenario.node[4].nic.mac1609_4 NumInternalContention 0
scalar SingleAttackerV2VRSUScenario.node[4].nic.mac1609_4 totalBusyTime 10.396756
scalar SingleAttackerV2VRSUScenario.node[4].nic.mac1609_4 NodeDownCount 0
scalar SingleAttackerV2VRSUScenario.node[4].nic.mac1609_4 retriesExceeded:count 0
attr source org_car2x_veins_modules_mac_sigRetriesExceeded
scalar SingleAttackerV2VRSUScenario.node[4].nic.mac1609_4 sentAcks:count 0
attr source org_car2x_veins_modules_mac_sigSentAck
scalar SingleAttackerV2VRSUScenario.node[4].nic.mac1609_4 sentPackets:count 188
attr source org_car2x_veins_modules_mac_sigSentPacket
scalar SingleAttackerV2VRSUScenario.node[4].nic.mac1609_4 collisions:count 0
attr source org_car2x_veins_modules_mac_sigCollision
scalar SingleAttackerV2VRSUScenario.node[4].nic.mac1609_4 channelBusy:timeavg 0.055597625668437
attr source org_car2x_veins_modules_mac_sigChannelBusy
scalar SingleAttackerV2VRSUScenario.node[4].veinsmobility startTime 13
scalar SingleAttackerV2VRSUScenario.node[4].veinsmobility totalTime 187
scalar SingleAttackerV2VRSUScenario.node[4].veinsmobility stopTime 200
scalar SingleAttackerV2VRSUScenario.node[4].veinsmobility minSpeed 4.1202440707026
scalar SingleAttackerV2VRSUScenario.node[4].veinsmobility maxSpeed 13.998611656229
scalar SingleAttackerV2VRSUScenario.node[4].veinsmobility totalDistance 1830.7381931779
scalar SingleAttackerV2VRSUScenario.node[4].veinsmobility totalCO2Emission 363.55501457998
scalar SingleAttackerV2VRSUScenario.node[5].status nodeStatusData:count 0
attr source nodeStatusChanged
scalar SingleAttackerV2VRSUScenario.node[5].appl generatedWSMs 1
scalar SingleAttackerV2VRSUScenario.node[5].appl receivedWSMs 45328
scalar SingleAttackerV2VRSUScenario.node[5].appl generatedBSMs 184
scalar SingleAttackerV2VRSUScenario.node[5].appl receivedBSMs 3205
scalar SingleAttackerV2VRSUScenario.node[5].appl generatedWSAs 0
scalar SingleAttackerV2VRSUScenario.node[5].appl receivedWSAs 0
scalar SingleAttackerV2VRSUScenario.node[5].nic.phy80211p busyTime 0.059299043478254
scalar SingleAttackerV2VRSUScenario.node[5].nic.mac1609_4 ReceivedUnicastPackets 0
scalar SingleAttackerV2VRSUScenario.node[5].nic.mac1609_4 ReceivedBroadcasts 48533
scalar SingleAttackerV2VRSUScenario.node[5].nic.mac1609_4 SentPackets 185
scalar SingleAttackerV2VRSUScenario.node[5].nic.mac1609_4 SentAcknowledgements 0
scalar SingleAttackerV2VRSUScenario.node[5].nic.mac1609_4 RetriesExceeded 0
scalar SingleAttackerV2VRSUScenario.node[5].nic.mac1609_4 SNIRLostPackets 425
scalar SingleAttackerV2VRSUScenario.node[5].nic.mac1609_4 RXTXLostPackets 3
scalar SingleAttackerV2VRSUScenario.node[5].nic.mac1609_4 TotalLostPackets 428
scalar SingleAttackerV2VRSUScenario.node[5].nic.mac1609_4 DroppedPacketsInMac 0
scalar SingleAttackerV2VRSUScenario.node[5].nic.mac1609_4 TooLittleTime 0
scalar SingleAttackerV2VRSUScenario.node[5].nic.mac1609_4 TimesIntoBackoff 197
scalar SingleAttackerV2VRSUScenario.node[5].nic.mac1609_4 SlotsBackoff 303
scalar SingleAttackerV2VRSUScenario.node[5].nic.mac1609_4 NumInternalContention 0
scalar SingleAttackerV2VRSUScenario.node[5].nic.mac1609_4 totalBusyTime 10.907465
scalar SingleAttackerV2VRSUScenario.node[5].nic.mac1609_4 NodeDownCount 0
scalar SingleAttackerV2VRSUScenario.node[5].nic.mac1609_4 retriesExceeded:count 0
attr source org_car2x_veins_modules_mac_sigRetriesExceeded
scalar SingleAttackerV2VRSUScenario.node[5].nic.mac1609_4 sentAcks:count 0
attr source org_car2x_veins_modules_mac_sigSentAck
scalar SingleAttackerV2VRSUScenario.node[5].nic.mac1609_4 sentPackets:count 185
attr source org_car2x_veins_modules_mac_sigSentPacket
scalar SingleAttackerV2VRSUScenario.node[5].nic.mac1609_4 collisions:count 0
attr source org_car2x_veins_modules_mac_sigCollision
scalar SingleAttackerV2VRSUScenario.node[5].nic.mac1609_4 channelBusy:timeavg 0.059279701086949
attr source org_car2x_veins_modules_mac_sigChannelBusy
scalar SingleAttackerV2VRSUScenario.node[5].veinsmobility startTime 16
scalar SingleAttackerV2VRSUScenario.node[5].veinsmobility totalTime 184
scalar SingleAttackerV2VRSUScenario.node[5].veinsmobility stopTime 200
scalar SingleAttackerV2VRSUScenario.node[5].veinsmobility minSpeed 4.11254450365
scalar SingleAttackerV2VRSUScenario.node[5].veinsmobility maxSpeed 13.999388816282
scalar SingleAttackerV2VRSUScenario.node[5].veinsmobility totalDistance 1814.1949026224
scalar SingleAttackerV2VRSUScenario.node[5].veinsmobility totalCO2Emission 356.43088609996
scalar SingleAttackerV2VRSUScenario.node[6].status nodeStatusData:count 0
attr source nodeStatusChanged
scalar SingleAttackerV2VRSUScenario.node[6].appl generatedWSMs 1
scalar SingleAttackerV2VRSUScenario.node[6].appl receivedWSMs 52453
scalar SingleAttackerV2VRSUScenario.node[6].appl generatedBSMs 181
scalar SingleAttackerV2VRSUScenario.node[6].appl receivedBSMs 3245
scalar SingleAttackerV2VRSUScenario.node[6].appl generatedWSAs 0
scalar SingleAttackerV2VRSUScenario.node[6].appl receivedWSAs 0
scalar SingleAttackerV2VRSUScenario.node[6].nic.phy80211p busyTime 0.069476464088409
scalar SingleAttackerV2VRSUScenario.node[6].nic.mac1609_4 ReceivedUnicastPackets 0
scalar SingleAttackerV2VRSUScenario.node[6].nic.mac1609_4 ReceivedBroadcasts 55698
scalar SingleAttackerV2VRSUScenario.node[6].nic.mac1609_4 SentPackets 182
scalar SingleAttackerV2VRSUScenario.node[6].nic.mac1609_4 SentAcknowledgements 0
scalar SingleAttackerV2VRSUScenario.node[6].nic.mac1609_4 RetriesExceeded 0
scalar SingleAttackerV2VRSUScenario.node[6].nic.mac1609_4 SNIRLostPackets 451
scalar SingleAttackerV2VRSUScenario.node[6].nic.mac1609_4 RXTXLostPackets 10
scalar SingleAttackerV2VRSUScenario.node[6].nic.mac1609_4 TotalLostPackets 461
scalar SingleAttackerV2VRSUScenario.node[6].nic.mac1609_4 DroppedPacketsInMac 0
scalar SingleAttackerV2VRSUScenario.node[6].nic.mac1609_4 TooLittleTime 0
scalar SingleAttackerV2VRSUScenario.node[6].nic.mac1609_4 TimesIntoBackoff 192
scalar SingleAttackerV2VRSUScenario.node[6].nic.mac1609_4 SlotsBackoff 302
scalar SingleAttackerV2VRSUScenario.node[6].nic.mac1609_4 NumInternalContention 0
scalar SingleAttackerV2VRSUScenario.node[6].nic.mac1609_4 totalBusyTime 12.566662
scalar SingleAttackerV2VRSUScenario.node[6].nic.mac1609_4 NodeDownCount 0
scalar SingleAttackerV2VRSUScenario.node[6].nic.mac1609_4 retriesExceeded:count 0
attr source org_car2x_veins_modules_mac_sigRetriesExceeded
scalar SingleAttackerV2VRSUScenario.node[6].nic.mac1609_4 sentAcks:count 0
attr source org_car2x_veins_modules_mac_sigSentAck
scalar SingleAttackerV2VRSUScenario.node[6].nic.mac1609_4 sentPackets:count 182
attr source org_car2x_veins_modules_mac_sigSentPacket
scalar SingleAttackerV2VRSUScenario.node[6].nic.mac1609_4 collisions:count 0
attr source org_car2x_veins_modules_mac_sigCollision
scalar SingleAttackerV2VRSUScenario.node[6].nic.mac1609_4 channelBusy:timeavg 0.069429071823215
attr source org_car2x_veins_modules_mac_sigChannelBusy
scalar SingleAttackerV2VRSUScenario.node[6].veinsmobility startTime 19
scalar SingleAttackerV2VRSUScenario.node[6].veinsmobility totalTime 181
scalar SingleAttackerV2VRSUScenario.node[6].veinsmobility stopTime 200
scalar SingleAttackerV2VRSUScenario.node[6].veinsmobility minSpeed 4.067372106413
scalar SingleAttackerV2VRSUScenario.node[6].veinsmobility maxSpeed 12.741513219538
scalar SingleAttackerV2VRSUScenario.node[6].veinsmobility totalDistance 1693.0692080058
scalar SingleAttackerV2VRSUScenario.node[6].veinsmobility totalCO2Emission 322.82085770475
scalar SingleAttackerV2VRSUScenario.node[7].status nodeStatusData:count 0
attr source nodeStatusChanged
scalar SingleAttackerV2VRSUScenario.node[7].appl generatedWSMs 1
scalar SingleAttackerV2VRSUScenario.node[7].appl receivedWSMs 52437
scalar SingleAttackerV2VRSUScenario.node[7].appl generatedBSMs 178
scalar SingleAttackerV2VRSUScenario.node[7].appl receivedBSMs 3221
scalar SingleAttackerV2VRSUScenario.node[7].appl generatedWSAs 0
scalar SingleAttackerV2VRSUScenario.node[7].appl receivedWSAs 0
scalar SingleAttackerV2VRSUScenario.node[7].nic.phy80211p busyTime 0.073442786516871
scalar SingleAttackerV2VRSUScenario.node[7].nic.mac1609_4 ReceivedUnicastPackets 0
scalar SingleAttackerV2VRSUScenario.node[7].nic.mac1609_4 ReceivedBroadcasts 55658
scalar SingleAttackerV2VRSUScenario.node[7].nic.mac1609_4 SentPackets 179
scalar SingleAttackerV2VRSUScenario.node[7].nic.mac1609_4 SentAcknowledgements 0
scalar SingleAttackerV2VRSUScenario.node[7].nic.mac1609_4 RetriesExceeded 0
scalar SingleAttackerV2VRSUScenario.node[7].nic.mac1609_4 SNIRLostPackets 2628
scalar SingleAttackerV2VRSUScenario.node[7].nic.mac1609_4 RXTXLostPackets 4
scalar SingleAttackerV2VRSUScenario.node[7].nic.mac1609_4 TotalLostPackets 2632
scalar SingleAttackerV2VRSUScenario.node[7].nic.mac1609_4 DroppedPacketsInMac 0
scalar SingleAttackerV2VRSUScenario.node[7].nic.mac1609_4 TooLittleTime 0
scalar SingleAttackerV2VRSUScenario.node[7].nic.mac1609_4 TimesIntoBackoff 189
scalar SingleAttackerV2VRSUScenario.node[7].nic.mac1609_4 SlotsBackoff 284
scalar SingleAttackerV2VRSUScenario.node[7].nic.mac1609_4 NumInternalContention 0
scalar SingleAttackerV2VRSUScenario.node[7].nic.mac1609_4 totalBusyTime 13.060507
scalar SingleAttackerV2VRSUScenario.node[7].nic.mac1609_4 NodeDownCount 0
scalar SingleAttackerV2VRSUScenario.node[7].nic.mac1609_4 retriesExceeded:count 0
attr source org_car2x_veins_modules_mac_sigRetriesExceeded
scalar SingleAttackerV2VRSUScenario.node[7].nic.mac1609_4 sentAcks:count 0
attr source org_car2x_veins_modules_mac_sigSentAck
scalar SingleAttackerV2VRSUScenario.node[7].nic.mac1609_4 sentPackets:count 179
attr source org_car2x_veins_modules_mac_sigSentPacket
scalar SingleAttackerV2VRSUScenario.node[7].nic.mac1609_4 collisions:count 0
attr source org_car2x_veins_modules_mac_sigCollision
scalar SingleAttackerV2VRSUScenario.node[7].nic.mac1609_4 channelBusy:timeavg 0.073373634831477
attr source org_car2x_veins_modules_mac_sigChannelBusy
scalar SingleAttackerV2VRSUScenario.node[7].veinsmobility startTime 22
scalar SingleAttackerV2VRSUScenario.node[7].veinsmobility totalTime 178
scalar SingleAttackerV2VRSUScenario.node[7].veinsmobility stopTime 200
scalar SingleAttackerV2VRSUScenario.node[7].veinsmobility minSpeed 4.0430421609162
scalar SingleAttackerV2VRSUScenario.node[7].veinsmobility maxSpeed 13.996453029746
scalar SingleAttackerV2VRSUScenario.node[7].veinsmobility totalDistance 1680.9290521619
scalar SingleAttackerV2VRSUScenario.node[7].veinsmobility totalCO2Emission 321.1663767492
scalar SingleAttackerV2VRSUScenario.node[8].status nodeStatusData:count 0
attr source nodeStatusChanged
scalar SingleAttackerV2VRSUScenario.node[8].appl generatedWSMs 1
scalar SingleAttackerV2VRSUScenario.node[8].appl receivedWSMs 54559
scalar SingleAttackerV2VRSUScenario.node[8].appl generatedBSMs 175
scalar SingleAttackerV2VRSUScenario.node[8].appl receivedBSMs 3199
scalar SingleAttackerV2VRSUScenario.node[8].appl generatedWSAs 0
scalar SingleAttackerV2VRSUScenario.node[8].appl receivedWSAs 0
scalar SingleAttackerV2VRSUScenario.node[8].nic.phy80211p busyTime 0.077852937142881
scalar SingleAttackerV2VRSUScenario.node[8].nic.mac1609_4 ReceivedUnicastPackets 0
scalar SingleAttackerV2VRSUScenario.node[8].nic.mac1609_4 ReceivedBroadcasts 57758
scalar SingleAttackerV2VRSUScenario.node[8].nic.mac1609_4 SentPackets 176
scalar SingleAttackerV2VRSUScenario.node[8].nic.mac1609_4 SentAcknowledgements 0
scalar SingleAttackerV2VRSUScenario.node[8].nic.mac1609_4 RetriesExceeded 0
scalar SingleAttackerV2VRSUScenario.node[8].nic.mac1609_4 SNIRLostPackets 2895
scalar SingleAttackerV2VRSUScenario.node[8].nic.mac1609_4 RXTXLostPackets 4
scalar SingleAttackerV2VRSUScenario.node[8].nic.mac1609_4 TotalLostPackets 2899
scalar SingleAttackerV2VRSUScenario.node[8].nic.mac1609_4 DroppedPacketsInMac 0
scalar SingleAttackerV2VRSUScenario.node[8].nic.mac1609_4 TooLittleTime 0
scalar SingleAttackerV2VRSUScenario.node[8].nic.mac1609_4 TimesIntoBackoff 189
scalar SingleAttackerV2VRSUScenario.node[8].nic.mac1609_4 SlotsBackoff 281
scalar SingleAttackerV2VRSUScenario.node[8].nic.mac1609_4 NumInternalContention 0
scalar SingleAttackerV2VRSUScenario.node[8].nic.mac1609_4 totalBusyTime 13.610128
scalar SingleAttackerV2VRSUScenario.node[8].nic.mac1609_4 NodeDownCount 0
scalar SingleAttackerV2VRSUScenario.node[8].nic.mac1609_4 retriesExceeded:count 0
attr source org_car2x_veins_modules_mac_sigRetriesExceeded
scalar SingleAttackerV2VRSUScenario.node[8].nic.mac1609_4 sentAcks:count 0
attr source org_car2x_veins_modules_mac_sigSentAck
scalar SingleAttackerV2VRSUScenario.node[8].nic.mac1609_4 sentPackets:count 176
attr source org_car2x_veins_modules_mac_sigSentPacket
scalar SingleAttackerV2VRSUScenario.node[8].nic.mac1609_4 collisions:count 0
attr source org_car2x_veins_modules_mac_sigCollision
scalar SingleAttackerV2VRSUScenario.node[8].nic.mac1609_4 channelBusy:timeavg 0.077772160000023
attr source org_car2x_veins_modules_mac_sigChannelBusy
scalar SingleAttackerV2VRSUScenario.node[8].veinsmobility startTime 25
scalar SingleAttackerV2VRSUScenario.node[8].veinsmobility totalTime 175
scalar SingleAttackerV2VRSUScenario.node[8].veinsmobility stopTime 200
scalar SingleAttackerV2VRSUScenario.node[8].veinsmobility minSpeed 4.0410625637338
scalar SingleAttackerV2VRSUScenario.node[8].veinsmobility maxSpeed 13.996461975116
scalar SingleAttackerV2VRSUScenario.node[8].veinsmobility totalDistance 1666.0024867531
scalar SingleAttackerV2VRSUScenario.node[8].veinsmobility totalCO2Emission 319.02389448568
scalar SingleAttackerV2VRSUScenario.node[9].status nodeStatusData:count 0
attr source nodeStatusChanged
scalar SingleAttackerV2VRSUScenario.node[9].appl generatedWSMs 1
scalar SingleAttackerV2VRSUScenario.node[9].appl receivedWSMs 56921
scalar SingleAttackerV2VRSUScenario.node[9].appl generatedBSMs 172
scalar SingleAttackerV2VRSUScenario.node[9].appl receivedBSMs 3160
scalar SingleAttackerV2VRSUScenario.node[9].appl generatedWSAs 0
scalar SingleAttackerV2VRSUScenario.node[9].appl receivedWSAs 0
scalar SingleAttackerV2VRSUScenario.node[9].nic.phy80211p busyTime 0.079204930232582
scalar SingleAttackerV2VRSUScenario.node[9].nic.mac1609_4 ReceivedUnicastPackets 0
scalar SingleAttackerV2VRSUScenario.node[9].nic.mac1609_4 ReceivedBroadcasts 60081
scalar SingleAttackerV2VRSUScenario.node[9].nic.mac1609_4 SentPackets 173
scalar SingleAttackerV2VRSUScenario.node[9].nic.mac1609_4 SentAcknowledgements 0
scalar SingleAttackerV2VRSUScenario.node[9].nic.mac1609_4 RetriesExceeded 0
scalar SingleAttackerV2VRSUScenario.node[9].nic.mac1609_4 SNIRLostPackets 561
scalar SingleAttackerV2VRSUScenario.node[9].nic.mac1609_4 RXTXLostPackets 3
scalar SingleAttackerV2VRSUScenario.node[9].nic.mac1609_4 TotalLostPackets 564
scalar SingleAttackerV2VRSUScenario.node[9].nic.mac1609_4 DroppedPacketsInMac 0
scalar SingleAttackerV2VRSUScenario.node[9].nic.mac1609_4 TooLittleTime 0
scalar SingleAttackerV2VRSUScenario.node[9].nic.mac1609_4 TimesIntoBackoff 187
scalar SingleAttackerV2VRSUScenario.node[9].nic.mac1609_4 SlotsBackoff 245
scalar SingleAttackerV2VRSUScenario.node[9].nic.mac1609_4 NumInternalContention 0
scalar SingleAttackerV2VRSUScenario.node[9].nic.mac1609_4 totalBusyTime 13.607741
scalar SingleAttackerV2VRSUScenario.node[9].nic.mac1609_4 NodeDownCount 0
scalar SingleAttackerV2VRSUScenario.node[9].nic.mac1609_4 retriesExceeded:count 0
attr source org_car2x_veins_modules_mac_sigRetriesExceeded
scalar SingleAttackerV2VRSUScenario.node[9].nic.mac1609_4 sentAcks:count 0
attr source org_car2x_veins_modules_mac_sigSentAck
scalar SingleAttackerV2VRSUScenario.node[9].nic.mac1609_4 sentPackets:count 173
attr source org_car2x_veins_modules_mac_sigSentPacket
scalar SingleAttackerV2VRSUScenario.node[9].nic.mac1609_4 collisions:count 0
attr source org_car2x_veins_modules_mac_sigCollision
scalar SingleAttackerV2VRSUScenario.node[9].nic.mac1609_4 channelBusy:timeavg 0.079114773255837
attr source org_car2x_veins_modules_mac_sigChannelBusy
scalar SingleAttackerV2VRSUScenario.node[9].veinsmobility startTime 28
scalar SingleAttackerV2VRSUScenario.node[9].veinsmobility totalTime 172
scalar SingleAttackerV2VRSUScenario.node[9].veinsmobility stopTime 200
scalar SingleAttackerV2VRSUScenario.node[9].veinsmobility minSpeed 4.0414518827764
scalar SingleAttackerV2VRSUScenario.node[9].veinsmobility maxSpeed 13.990338315354
scalar SingleAttackerV2VRSUScenario.node[9].veinsmobility totalDistance 1660.5443684284
scalar SingleAttackerV2VRSUScenario.node[9].veinsmobility totalCO2Emission 316.91219203287
scalar SingleAttackerV2VRSUScenario.node[10].status nodeStatusData:count 0
attr source nodeStatusChanged
scalar SingleAttackerV2VRSUScenario.node[10].appl generatedWSMs 1
scalar SingleAttackerV2VRSUScenario.node[10].appl receivedWSMs 56913
scalar SingleAttackerV2VRSUScenario.node[10].appl generatedBSMs 169
scalar SingleAttackerV2VRSUScenario.node[10].appl receivedBSMs 3134
scalar SingleAttackerV2VRSUScenario.node[10].appl generatedWSAs 0
scalar SingleAttackerV2VRSUScenario.node[10].appl receivedWSAs 0
scalar SingleAttackerV2VRSUScenario.node[10].nic.phy80211p busyTime 0.080585893491148
scalar SingleAttackerV2VRSUScenario.node[10].nic.mac1609_4 ReceivedUnicastPackets 0
scalar SingleAttackerV2VRSUScenario.node[10].nic.mac1609_4 ReceivedBroadcasts 60047
scalar SingleAttackerV2VRSUScenario.node[10].nic.mac1609_4 SentPackets 170
scalar SingleAttackerV2VRSUScenario.node[10].nic.mac1609_4 SentAcknowledgements 0
scalar SingleAttackerV2VRSUScenario.node[10].nic.mac1609_4 RetriesExceeded 0
scalar SingleAttackerV2VRSUScenario.node[10].nic.mac1609_4 SNIRLostPackets 558
scalar SingleAttackerV2VRSUScenario.node[10].nic.mac1609_4 RXTXLostPackets 7
scalar SingleAttackerV2VRSUScenario.node[10].nic.mac1609_4 TotalLostPackets 565
scalar SingleAttackerV2VRSUScenario.node[10].nic.mac1609_4 DroppedPacketsInMac 0
scalar SingleAttackerV2VRSUScenario.node[10].nic.mac1609_4 TooLittleTime 0
scalar SingleAttackerV2VRSUScenario.node[10].nic.mac1609_4 TimesIntoBackoff 183
scalar SingleAttackerV2VRSUScenario.node[10].nic.mac1609_4 SlotsBackoff 257
scalar SingleAttackerV2VRSUScenario.node[10].nic.mac1609_4 NumInternalContention 0
scalar SingleAttackerV2VRSUScenario.node[10].nic.mac1609_4 totalBusyTime 13.60309
scalar SingleAttackerV2VRSUScenario.node[10].nic.mac1609_4 NodeDownCount 0
scalar SingleAttackerV2VRSUScenario.node[10].nic.mac1609_4 retriesExceeded:count 0
attr source org_car2x_veins_modules_mac_sigRetriesExceeded
scalar SingleAttackerV2VRSUScenario.node[10].nic.mac1609_4 sentAcks:count 0
attr source org_car2x_veins_modules_mac_sigSentAck
scalar SingleAttackerV2VRSUScenario.node[10].nic.mac1609_4 sentPackets:count 170
attr source org_car2x_veins_modules_mac_sigSentPacket
scalar SingleAttackerV2VRSUScenario.node[10].nic.mac1609_4 collisions:count 0
attr source org_car2x_veins_modules_mac_sigCollision
scalar SingleAttackerV2VRSUScenario.node[10].nic.mac1609_4 channelBusy:timeavg 0.080491656804757
attr source org_car2x_veins_modules_mac_sigChannelBusy
scalar SingleAttackerV2VRSUScenario.node[10].veinsmobility startTime 31
scalar SingleAttackerV2VRSUScenario.node[10].veinsmobility totalTime 169
scalar SingleAttackerV2VRSUScenario.node[10].veinsmobility stopTime 200
scalar SingleAttackerV2VRSUScenario.node[10].veinsmobility minSpeed 4.0921991861071
scalar SingleAttackerV2VRSUScenario.node[10].veinsmobility maxSpeed 13.995584658093
scalar SingleAttackerV2VRSUScenario.node[10].veinsmobility totalDistance 1650.4482889158
scalar SingleAttackerV2VRSUScenario.node[10].veinsmobility totalCO2Emission 310.23305964787
scalar SingleAttackerV2VRSUScenario.node[11].status nodeStatusData:count 0
attr source nodeStatusChanged
scalar SingleAttackerV2VRSUScenario.node[11].appl generatedWSMs 1
scalar SingleAttackerV2VRSUScenario.node[11].appl receivedWSMs 56904
scalar SingleAttackerV2VRSUScenario.node[11].appl generatedBSMs 166
scalar SingleAttackerV2VRSUScenario.node[11].appl receivedBSMs 3073
scalar SingleAttackerV2VRSUScenario.node[11].appl generatedWSAs 0
scalar SingleAttackerV2VRSUScenario.node[11].appl receivedWSAs 0
scalar SingleAttackerV2VRSUScenario.node[11].nic.phy80211p busyTime 0.082026120481952
scalar SingleAttackerV2VRSUScenario.node[11].nic.mac1609_4 ReceivedUnicastPackets 0
scalar SingleAttackerV2VRSUScenario.node[11].nic.mac1609_4 ReceivedBroadcasts 59977
scalar SingleAttackerV2VRSUScenario.node[11].nic.mac1609_4 SentPackets 167
scalar SingleAttackerV2VRSUScenario.node[11].nic.mac1609_4 SentAcknowledgements 0
scalar SingleAttackerV2VRSUScenario.node[11].nic.mac1609_4 RetriesExceeded 0
scalar SingleAttackerV2VRSUScenario.node[11].nic.mac1609_4 SNIRLostPackets 601
scalar SingleAttackerV2VRSUScenario.node[11].nic.mac1609_4 RXTXLostPackets 8
scalar SingleAttackerV2VRSUScenario.node[11].nic.mac1609_4 TotalLostPackets 609
scalar SingleAttackerV2VRSUScenario.node[11].nic.mac1609_4 DroppedPacketsInMac 0
scalar SingleAttackerV2VRSUScenario.node[11].nic.mac1609_4 TooLittleTime 0
scalar SingleAttackerV2VRSUScenario.node[11].nic.mac1609_4 TimesIntoBackoff 181
scalar SingleAttackerV2VRSUScenario.node[11].nic.mac1609_4 SlotsBackoff 288
scalar SingleAttackerV2VRSUScenario.node[11].nic.mac1609_4 NumInternalContention 0
scalar SingleAttackerV2VRSUScenario.node[11].nic.mac1609_4 totalBusyTime 13.598671
scalar SingleAttackerV2VRSUScenario.node[11].nic.mac1609_4 NodeDownCount 0
scalar SingleAttackerV2VRSUScenario.node[11].nic.mac1609_4 retriesExceeded:count 0
attr source org_car2x_veins_modules_mac_sigRetriesExceeded
scalar SingleAttackerV2VRSUScenario.node[11].nic.mac1609_4 sentAcks:count 0
attr source org_car2x_veins_modules_mac_sigSentAck
scalar SingleAttackerV2VRSUScenario.node[11].nic.mac1609_4 sentPackets:count 167
attr source org_car2x_veins_modules_mac_sigSentPacket
scalar SingleAttackerV2VRSUScenario.node[11].nic.mac1609_4 collisions:count 0
attr source org_car2x_veins_modules_mac_sigCollision
scalar SingleAttackerV2VRSUScenario.node[11].nic.mac1609_4 channelBusy:timeavg 0.081919704819301
attr source org_car2x_veins_modules_mac_sigChannelBusy
scalar SingleAttackerV2VRSUScenario.node[11].veinsmobility startTime 34
scalar SingleAttackerV2VRSUScenario.node[11].veinsmobility totalTime 166
scalar SingleAttackerV2VRSUScenario.node[11].veinsmobility stopTime 200
scalar SingleAttackerV2VRSUScenario.node[11].veinsmobility minSpeed 4.0902178359286
scalar SingleAttackerV2VRSUScenario.node[11].veinsmobility maxSpeed 13.998126043116
scalar SingleAttackerV2VRSUScenario.node[11].veinsmobility totalDistance 1639.6418866294
scalar SingleAttackerV2VRSUScenario.node[11].veinsmobility totalCO2Emission 306.32277482889
scalar SingleAttackerV2VRSUScenario.node[12].status nodeStatusData:count 0
attr source nodeStatusChanged
scalar SingleAttackerV2VRSUScenario.node[12].appl generatedWSMs 1
scalar SingleAttackerV2VRSUScenario.node[12].appl receivedWSMs 24259
scalar SingleAttackerV2VRSUScenario.node[12].appl generatedBSMs 163
scalar SingleAttackerV2VRSUScenario.node[12].appl receivedBSMs 1953
scalar SingleAttackerV2VRSUScenario.node[12].appl generatedWSAs 0
scalar SingleAttackerV2VRSUScenario.node[12].appl receivedWSAs 0
scalar SingleAttackerV2VRSUScenario.node[12].nic.phy80211p busyTime 0.045814429447819
scalar SingleAttackerV2VRSUScenario.node[12].nic.mac1609_4 ReceivedUnicastPackets 0
scalar SingleAttackerV2VRSUScenario.node[12].nic.mac1609_4 ReceivedBroadcasts 26212
scalar SingleAttackerV2VRSUScenario.node[12].nic.mac1609_4 SentPackets 164
scalar SingleAttackerV2VRSUScenario.node[12].nic.mac1609_4 SentAcknowledgements 0
scalar SingleAttackerV2VRSUScenario.node[12].nic.mac1609_4 RetriesExceeded 0
scalar SingleAttackerV2VRSUScenario.node[12].nic.mac1609_4 SNIRLostPackets 7165
scalar SingleAttackerV2VRSUScenario.node[12].nic.mac1609_4 RXTXLostPackets 2
scalar SingleAttackerV2VRSUScenario.node[12].nic.mac1609_4 TotalLostPackets 7167
scalar SingleAttackerV2VRSUScenario.node[12].nic.mac1609_4 DroppedPacketsInMac 0
scalar SingleAttackerV2VRSUScenario.node[12].nic.mac1609_4 TooLittleTime 0
scalar SingleAttackerV2VRSUScenario.node[12].nic.mac1609_4 TimesIntoBackoff 171
scalar SingleAttackerV2VRSUScenario.node[12].nic.mac1609_4 SlotsBackoff 284
scalar SingleAttackerV2VRSUScenario.node[12].nic.mac1609_4 NumInternalContention 0
scalar SingleAttackerV2VRSUScenario.node[12].nic.mac1609_4 totalBusyTime 7.464268
scalar SingleAttackerV2VRSUScenario.node[12].nic.mac1609_4 NodeDownCount 0
scalar SingleAttackerV2VRSUScenario.node[12].nic.mac1609_4 retriesExceeded:count 0
attr source org_car2x_veins_modules_mac_sigRetriesExceeded
scalar SingleAttackerV2VRSUScenario.node[12].nic.mac1609_4 sentAcks:count 0
attr source org_car2x_veins_modules_mac_sigSentAck
scalar SingleAttackerV2VRSUScenario.node[12].nic.mac1609_4 sentPackets:count 164
attr source org_car2x_veins_modules_mac_sigSentPacket
scalar SingleAttackerV2VRSUScenario.node[12].nic.mac1609_4 collisions:count 0
attr source org_car2x_veins_modules_mac_sigCollision
scalar SingleAttackerV2VRSUScenario.node[12].nic.mac1609_4 channelBusy:timeavg 0.04579305521469
attr source org_car2x_veins_modules_mac_sigChannelBusy
scalar SingleAttackerV2VRSUScenario.node[12].veinsmobility startTime 37
scalar SingleAttackerV2VRSUScenario.node[12].veinsmobility totalTime 163
scalar SingleAttackerV2VRSUScenario.node[12].veinsmobility stopTime 200
scalar SingleAttackerV2VRSUScenario.node[12].veinsmobility minSpeed 3.8721652445728
scalar SingleAttackerV2VRSUScenario.node[12].veinsmobility maxSpeed 13.974055984516
scalar SingleAttackerV2VRSUScenario.node[12].veinsmobility totalDistance 1775.0086157945
scalar SingleAttackerV2VRSUScenario.node[12].veinsmobility totalCO2Emission 362.47488350575
scalar SingleAttackerV2VRSUScenario.node[13].status nodeStatusData:count 0
attr source nodeStatusChanged
scalar SingleAttackerV2VRSUScenario.node[13].appl generatedWSMs 1
scalar SingleAttackerV2VRSUScenario.node[13].appl receivedWSMs 20870
scalar SingleAttackerV2VRSUScenario.node[13].appl generatedBSMs 160
scalar SingleAttackerV2VRSUScenario.node[13].appl receivedBSMs 1549
scalar SingleAttackerV2VRSUScenario.node[13].appl generatedWSAs 0
scalar SingleAttackerV2VRSUScenario.node[13].appl receivedWSAs 0
scalar SingleAttackerV2VRSUScenario.node[13].nic.phy80211p busyTime 0.041453699999975
scalar SingleAttackerV2VRSUScenario.node[13].nic.mac1609_4 ReceivedUnicastPackets 0
scalar SingleAttackerV2VRSUScenario.node[13].nic.mac1609_4 ReceivedBroadcasts 22419
scalar SingleAttackerV2VRSUScenario.node[13].nic.mac1609_4 SentPackets 161
scalar SingleAttackerV2VRSUScenario.node[13].nic.mac1609_4 SentAcknowledgements 0
scalar SingleAttackerV2VRSUScenario.node[13].nic.mac1609_4 RetriesExceeded 0
scalar SingleAttackerV2VRSUScenario.node[13].nic.mac1609_4 SNIRLostPackets 7143
scalar SingleAttackerV2VRSUScenario.node[13].nic.mac1609_4 RXTXLostPackets 4
scalar SingleAttackerV2VRSUScenario.node[13].nic.mac1609_4 TotalLostPackets 7147
scalar SingleAttackerV2VRSUScenario.node[13].nic.mac1609_4 DroppedPacketsInMac 0
scalar SingleAttackerV2VRSUScenario.node[13].nic.mac1609_4 TooLittleTime 0
scalar SingleAttackerV2VRSUScenario.node[13].nic.mac1609_4 TimesIntoBackoff 166
scalar SingleAttackerV2VRSUScenario.node[13].nic.mac1609_4 SlotsBackoff 271
scalar SingleAttackerV2VRSUScenario.node[13].nic.mac1609_4 NumInternalContention 0
scalar SingleAttackerV2VRSUScenario.node[13].nic.mac1609_4 totalBusyTime 6.631961
scalar SingleAttackerV2VRSUScenario.node[13].nic.mac1609_4 NodeDownCount 0
scalar SingleAttackerV2VRSUScenario.node[13].nic.mac1609_4 retriesExceeded:count 0
attr source org_car2x_veins_modules_mac_sigRetriesExceeded
scalar SingleAttackerV2VRSUScenario.node[13].nic.mac1609_4 sentAcks:count 0
attr source org_car2x_veins_modules_mac_sigSentAck
scalar SingleAttackerV2VRSUScenario.node[13].nic.mac1609_4 sentPackets:count 161
attr source org_car2x_veins_modules_mac_sigSentPacket
scalar SingleAttackerV2VRSUScenario.node[13].nic.mac1609_4 collisions:count 0
attr source org_car2x_veins_modules_mac_sigCollision
scalar SingleAttackerV2VRSUScenario.node[13].nic.mac1609_4 channelBusy:timeavg 0.041449756249974
attr source org_car2x_veins_modules_mac_sigChannelBusy
scalar SingleAttackerV2VRSUScenario.node[13].veinsmobility startTime 40
scalar SingleAttackerV2VRSUScenario.node[13].veinsmobility totalTime 160
scalar SingleAttackerV2VRSUScenario.node[13].veinsmobility stopTime 200
scalar SingleAttackerV2VRSUScenario.node[13].veinsmobility minSpeed 3.8893497726901
scalar SingleAttackerV2VRSUScenario.node[13].veinsmobility maxSpeed 13.99703349022
scalar SingleAttackerV2VRSUScenario.node[13].veinsmobility totalDistance 1785.5250727239
scalar SingleAttackerV2VRSUScenario.node[13].veinsmobility totalCO2Emission 384.84629419415
scalar SingleAttackerV2VRSUScenario.node[14].status nodeStatusData:count 0
attr source nodeStatusChanged
scalar SingleAttackerV2VRSUScenario.node[14].appl generatedWSMs 1
scalar SingleAttackerV2VRSUScenario.node[14].appl receivedWSMs 23208
scalar SingleAttackerV2VRSUScenario.node[14].appl generatedBSMs 157
scalar SingleAttackerV2VRSUScenario.node[14].appl receivedBSMs 2001
scalar SingleAttackerV2VRSUScenario.node[14].appl generatedWSAs 0
scalar SingleAttackerV2VRSUScenario.node[14].appl receivedWSAs 0
scalar SingleAttackerV2VRSUScenario.node[14].nic.phy80211p busyTime 0.046198012738822
scalar SingleAttackerV2VRSUScenario.node[14].nic.mac1609_4 ReceivedUnicastPackets 0
scalar SingleAttackerV2VRSUScenario.node[14].nic.mac1609_4 ReceivedBroadcasts 25209
scalar SingleAttackerV2VRSUScenario.node[14].nic.mac1609_4 SentPackets 158
scalar SingleAttackerV2VRSUScenario.node[14].nic.mac1609_4 SentAcknowledgements 0
scalar SingleAttackerV2VRSUScenario.node[14].nic.mac1609_4 RetriesExceeded 0
scalar SingleAttackerV2VRSUScenario.node[14].nic.mac1609_4 SNIRLostPackets 7267
scalar SingleAttackerV2VRSUScenario.node[14].nic.mac1609_4 RXTXLostPackets 1
scalar SingleAttackerV2VRSUScenario.node[14].nic.mac1609_4 TotalLostPackets 7268
scalar SingleAttackerV2VRSUScenario.node[14].nic.mac1609_4 DroppedPacketsInMac 0
scalar SingleAttackerV2VRSUScenario.node[14].nic.mac1609_4 TooLittleTime 0
scalar SingleAttackerV2VRSUScenario.node[14].nic.mac1609_4 TimesIntoBackoff 169
scalar SingleAttackerV2VRSUScenario.node[14].nic.mac1609_4 SlotsBackoff 261
scalar SingleAttackerV2VRSUScenario.node[14].nic.mac1609_4 NumInternalContention 0
scalar SingleAttackerV2VRSUScenario.node[14].nic.mac1609_4 totalBusyTime 7.248862
scalar SingleAttackerV2VRSUScenario.node[14].nic.mac1609_4 NodeDownCount 0
scalar SingleAttackerV2VRSUScenario.node[14].nic.mac1609_4 retriesExceeded:count 0
attr source org_car2x_veins_modules_mac_sigRetriesExceeded
scalar SingleAttackerV2VRSUScenario.node[14].nic.mac1609_4 sentAcks:count 0
attr source org_car2x_veins_modules_mac_sigSentAck
scalar SingleAttackerV2VRSUScenario.node[14].nic.mac1609_4 sentPackets:count 158
attr source org_car2x_veins_modules_mac_sigSentPacket
scalar SingleAttackerV2VRSUScenario.node[14].nic.mac1609_4 collisions:count 0
attr source org_car2x_veins_modules_mac_sigCollision
scalar SingleAttackerV2VRSUScenario.node[14].nic.mac1609_4 channelBusy:timeavg 0.046171095541369
attr source org_car2x_veins_modules_mac_sigChannelBusy
scalar SingleAttackerV2VRSUScenario.node[14].veinsmobility startTime 43
scalar SingleAttackerV2VRSUScenario.node[14].veinsmobility totalTime 157
scalar SingleAttackerV2VRSUScenario.node[14].veinsmobility stopTime 200
scalar SingleAttackerV2VRSUScenario.node[14].veinsmobility minSpeed 0
scalar SingleAttackerV2VRSUScenario.node[14].veinsmobility maxSpeed 13.990070434255
scalar SingleAttackerV2VRSUScenario.node[14].veinsmobility totalDistance 1658.3544508132
scalar SingleAttackerV2VRSUScenario.node[14].veinsmobility totalCO2Emission 363.79701506736
scalar SingleAttackerV2VRSUScenario.node[15].status nodeStatusData:count 0
attr source nodeStatusChanged
scalar SingleAttackerV2VRSUScenario.node[15].appl generatedWSMs 1
scalar SingleAttackerV2VRSUScenario.node[15].appl receivedWSMs 11484
scalar SingleAttackerV2VRSUScenario.node[15].appl generatedBSMs 154
scalar SingleAttackerV2VRSUScenario.node[15].appl receivedBSMs 2062
scalar SingleAttackerV2VRSUScenario.node[15].appl generatedWSAs 0
scalar SingleAttackerV2VRSUScenario.node[15].appl receivedWSAs 0
scalar SingleAttackerV2VRSUScenario.node[15].nic.phy80211p busyTime 0.028825246753247
scalar SingleAttackerV2VRSUScenario.node[15].nic.mac1609_4 ReceivedUnicastPackets 0
scalar SingleAttackerV2VRSUScenario.node[15].nic.mac1609_4 ReceivedBroadcasts 13546
scalar SingleAttackerV2VRSUScenario.node[15].nic.mac1609_4 SentPackets 155
scalar SingleAttackerV2VRSUScenario.node[15].nic.mac1609_4 SentAcknowledgements 0
scalar SingleAttackerV2VRSUScenario.node[15].nic.mac1609_4 RetriesExceeded 0
scalar SingleAttackerV2VRSUScenario.node[15].nic.mac1609_4 SNIRLostPackets 6804
scalar SingleAttackerV2VRSUScenario.node[15].nic.mac1609_4 RXTXLostPackets 3
scalar SingleAttackerV2VRSUScenario.node[15].nic.mac1609_4 TotalLostPackets 6807
scalar SingleAttackerV2VRSUScenario.node[15].nic.mac1609_4 DroppedPacketsInMac 0
scalar SingleAttackerV2VRSUScenario.node[15].nic.mac1609_4 TooLittleTime 0
scalar SingleAttackerV2VRSUScenario.node[15].nic.mac1609_4 TimesIntoBackoff 158
scalar SingleAttackerV2VRSUScenario.node[15].nic.mac1609_4 SlotsBackoff 238
scalar SingleAttackerV2VRSUScenario.node[15].nic.mac1609_4 NumInternalContention 0
scalar SingleAttackerV2VRSUScenario.node[15].nic.mac1609_4 totalBusyTime 4.443334233069
scalar SingleAttackerV2VRSUScenario.node[15].nic.mac1609_4 NodeDownCount 0
scalar SingleAttackerV2VRSUScenario.node[15].nic.mac1609_4 retriesExceeded:count 0
attr source org_car2x_veins_modules_mac_sigRetriesExceeded
scalar SingleAttackerV2VRSUScenario.node[15].nic.mac1609_4 sentAcks:count 0
attr source org_car2x_veins_modules_mac_sigSentAck
scalar SingleAttackerV2VRSUScenario.node[15].nic.mac1609_4 sentPackets:count 155
attr source org_car2x_veins_modules_mac_sigSentPacket
scalar SingleAttackerV2VRSUScenario.node[15].nic.mac1609_4 collisions:count 0
attr source org_car2x_veins_modules_mac_sigCollision
scalar SingleAttackerV2VRSUScenario.node[15].nic.mac1609_4 channelBusy:timeavg 0.028852819695254
attr source org_car2x_veins_modules_mac_sigChannelBusy
scalar SingleAttackerV2VRSUScenario.node[15].veinsmobility startTime 46
scalar SingleAttackerV2VRSUScenario.node[15].veinsmobility totalTime 154
scalar SingleAttackerV2VRSUScenario.node[15].veinsmobility stopTime 200
scalar SingleAttackerV2VRSUScenario.node[15].veinsmobility minSpeed 2.1298658241565
scalar SingleAttackerV2VRSUScenario.node[15].veinsmobility maxSpeed 13.996984358472
scalar SingleAttackerV2VRSUScenario.node[15].veinsmobility totalDistance 1631.0316856803
scalar SingleAttackerV2VRSUScenario.node[15].veinsmobility totalCO2Emission 352.54294333784
scalar SingleAttackerV2VRSUScenario.node[16].status nodeStatusData:count 0
attr source nodeStatusChanged
scalar SingleAttackerV2VRSUScenario.node[16].appl generatedWSMs 1
scalar SingleAttackerV2VRSUScenario.node[16].appl receivedWSMs 4125
scalar SingleAttackerV2VRSUScenario.node[16].appl generatedBSMs 151
scalar SingleAttackerV2VRSUScenario.node[16].appl receivedBSMs 2697
scalar SingleAttackerV2VRSUScenario.node[16].appl generatedWSAs 0
scalar SingleAttackerV2VRSUScenario.node[16].appl receivedWSAs 0
scalar SingleAttackerV2VRSUScenario.node[16].nic.phy80211p busyTime 0.011514596026492
scalar SingleAttackerV2VRSUScenario.node[16].nic.mac1609_4 ReceivedUnicastPackets 0
scalar SingleAttackerV2VRSUScenario.node[16].nic.mac1609_4 ReceivedBroadcasts 6822
scalar SingleAttackerV2VRSUScenario.node[16].nic.mac1609_4 SentPackets 152
scalar SingleAttackerV2VRSUScenario.node[16].nic.mac1609_4 SentAcknowledgements 0
scalar SingleAttackerV2VRSUScenario.node[16].nic.mac1609_4 RetriesExceeded 0
scalar SingleAttackerV2VRSUScenario.node[16].nic.mac1609_4 SNIRLostPackets 2236
scalar SingleAttackerV2VRSUScenario.node[16].nic.mac1609_4 RXTXLostPackets 1
scalar SingleAttackerV2VRSUScenario.node[16].nic.mac1609_4 TotalLostPackets 2237
scalar SingleAttackerV2VRSUScenario.node[16].nic.mac1609_4 DroppedPacketsInMac 0
scalar SingleAttackerV2VRSUScenario.node[16].nic.mac1609_4 TooLittleTime 0
scalar SingleAttackerV2VRSUScenario.node[16].nic.mac1609_4 TimesIntoBackoff 154
scalar SingleAttackerV2VRSUScenario.node[16].nic.mac1609_4 SlotsBackoff 229
scalar SingleAttackerV2VRSUScenario.node[16].nic.mac1609_4 NumInternalContention 0
scalar SingleAttackerV2VRSUScenario.node[16].nic.mac1609_4 totalBusyTime 1.751744
scalar SingleAttackerV2VRSUScenario.node[16].nic.mac1609_4 NodeDownCount 0
scalar SingleAttackerV2VRSUScenario.node[16].nic.mac1609_4 retriesExceeded:count 0
attr source org_car2x_veins_modules_mac_sigRetriesExceeded
scalar SingleAttackerV2VRSUScenario.node[16].nic.mac1609_4 sentAcks:count 0
attr source org_car2x_veins_modules_mac_sigSentAck
scalar SingleAttackerV2VRSUScenario.node[16].nic.mac1609_4 sentPackets:count 152
attr source org_car2x_veins_modules_mac_sigSentPacket
scalar SingleAttackerV2VRSUScenario.node[16].nic.mac1609_4 collisions:count 0
attr source org_car2x_veins_modules_mac_sigCollision
scalar SingleAttackerV2VRSUScenario.node[16].nic.mac1609_4 channelBusy:timeavg 0.011600953642386
attr source org_car2x_veins_modules_mac_sigChannelBusy
scalar SingleAttackerV2VRSUScenario.node[16].veinsmobility startTime 49
scalar SingleAttackerV2VRSUScenario.node[16].veinsmobility totalTime 151
scalar SingleAttackerV2VRSUScenario.node[16].veinsmobility stopTime 200
scalar SingleAttackerV2VRSUScenario.node[16].veinsmobility minSpeed 3.9289234951894
scalar SingleAttackerV2VRSUScenario.node[16].veinsmobility maxSpeed 12.063327381323
scalar SingleAttackerV2VRSUScenario.node[16].veinsmobility totalDistance 1159.9111513565
scalar SingleAttackerV2VRSUScenario.node[16].veinsmobility totalCO2Emission 261.07814127441
scalar SingleAttackerV2VRSUScenario.node[17].status nodeStatusData:count 0
attr source nodeStatusChanged
scalar SingleAttackerV2VRSUScenario.node[17].appl generatedWSMs 1
scalar SingleAttackerV2VRSUScenario.node[17].appl receivedWSMs 7484
scalar SingleAttackerV2VRSUScenario.node[17].appl generatedBSMs 148
scalar SingleAttackerV2VRSUScenario.node[17].appl receivedBSMs 2678
scalar SingleAttackerV2VRSUScenario.node[17].appl generatedWSAs 0
scalar SingleAttackerV2VRSUScenario.node[17].appl receivedWSAs 0
scalar SingleAttackerV2VRSUScenario.node[17].nic.phy80211p busyTime 0.017557297297296
scalar SingleAttackerV2VRSUScenario.node[17].nic.mac1609_4 ReceivedUnicastPackets 0
scalar SingleAttackerV2VRSUScenario.node[17].nic.mac1609_4 ReceivedBroadcasts 10162
scalar SingleAttackerV2VRSUScenario.node[17].nic.mac1609_4 SentPackets 149
scalar SingleAttackerV2VRSUScenario.node[17].nic.mac1609_4 SentAcknowledgements 0
scalar SingleAttackerV2VRSUScenario.node[17].nic.mac1609_4 RetriesExceeded 0
scalar SingleAttackerV2VRSUScenario.node[17].nic.mac1609_4 SNIRLostPackets 2608
scalar SingleAttackerV2VRSUScenario.node[17].nic.mac1609_4 RXTXLostPackets 0
scalar SingleAttackerV2VRSUScenario.node[17].nic.mac1609_4 TotalLostPackets 2608
scalar SingleAttackerV2VRSUScenario.node[17].nic.mac1609_4 DroppedPacketsInMac 0
scalar SingleAttackerV2VRSUScenario.node[17].nic.mac1609_4 TooLittleTime 0
scalar SingleAttackerV2VRSUScenario.node[17].nic.mac1609_4 TimesIntoBackoff 151
scalar SingleAttackerV2VRSUScenario.node[17].nic.mac1609_4 SlotsBackoff 227
scalar SingleAttackerV2VRSUScenario.node[17].nic.mac1609_4 NumInternalContention 0
scalar SingleAttackerV2VRSUScenario.node[17].nic.mac1609_4 totalBusyTime 2.608101
scalar SingleAttackerV2VRSUScenario.node[17].nic.mac1609_4 NodeDownCount 0
scalar SingleAttackerV2VRSUScenario.node[17].nic.mac1609_4 retriesExceeded:count 0
attr source org_car2x_veins_modules_mac_sigRetriesExceeded
scalar SingleAttackerV2VRSUScenario.node[17].nic.mac1609_4 sentAcks:count 0
attr source org_car2x_veins_modules_mac_sigSentAck
scalar SingleAttackerV2VRSUScenario.node[17].nic.mac1609_4 sentPackets:count 149
attr source org_car2x_veins_modules_mac_sigSentPacket
scalar SingleAttackerV2VRSUScenario.node[17].nic.mac1609_4 collisions:count 0
attr source org_car2x_veins_modules_mac_sigCollision
scalar SingleAttackerV2VRSUScenario.node[17].nic.mac1609_4 channelBusy:timeavg 0.017622304054053
attr source org_car2x_veins_modules_mac_sigChannelBusy
scalar SingleAttackerV2VRSUScenario.node[17].veinsmobility startTime 52
scalar SingleAttackerV2VRSUScenario.node[17].veinsmobility totalTime 148
scalar SingleAttackerV2VRSUScenario.node[17].veinsmobility stopTime 200
scalar SingleAttackerV2VRSUScenario.node[17].veinsmobility minSpeed 4.1654516040827
scalar SingleAttackerV2VRSUScenario.node[17].veinsmobility maxSpeed 12.824866217841
scalar SingleAttackerV2VRSUScenario.node[17].veinsmobility totalDistance 1144.3243910625
scalar SingleAttackerV2VRSUScenario.node[17].veinsmobility totalCO2Emission 257.20952494969
scalar SingleAttackerV2VRSUScenario.node[18].status nodeStatusData:count 0
attr source nodeStatusChanged
scalar SingleAttackerV2VRSUScenario.node[18].appl generatedWSMs 1
scalar SingleAttackerV2VRSUScenario.node[18].appl receivedWSMs 8165
scalar SingleAttackerV2VRSUScenario.node[18].appl generatedBSMs 145
scalar SingleAttackerV2VRSUScenario.node[18].appl receivedBSMs 2660
scalar SingleAttackerV2VRSUScenario.node[18].appl generatedWSAs 0
scalar SingleAttackerV2VRSUScenario.node[18].appl receivedWSAs 0
scalar SingleAttackerV2VRSUScenario.node[18].nic.phy80211p busyTime 0.027595917241378
scalar SingleAttackerV2VRSUScenario.node[18].nic.mac1609_4 ReceivedUnicastPackets 0
scalar SingleAttackerV2VRSUScenario.node[18].nic.mac1609_4 ReceivedBroadcasts 10825
scalar SingleAttackerV2VRSUScenario.node[18].nic.mac1609_4 SentPackets 146
scalar SingleAttackerV2VRSUScenario.node[18].nic.mac1609_4 SentAcknowledgements 0
scalar SingleAttackerV2VRSUScenario.node[18].nic.mac1609_4 RetriesExceeded 0
scalar SingleAttackerV2VRSUScenario.node[18].nic.mac1609_4 SNIRLostPackets 7991
scalar SingleAttackerV2VRSUScenario.node[18].nic.mac1609_4 RXTXLostPackets 0
scalar SingleAttackerV2VRSUScenario.node[18].nic.mac1609_4 TotalLostPackets 7991
scalar SingleAttackerV2VRSUScenario.node[18].nic.mac1609_4 DroppedPacketsInMac 0
scalar SingleAttackerV2VRSUScenario.node[18].nic.mac1609_4 TooLittleTime 0
scalar SingleAttackerV2VRSUScenario.node[18].nic.mac1609_4 TimesIntoBackoff 150
scalar SingleAttackerV2VRSUScenario.node[18].nic.mac1609_4 SlotsBackoff 219
scalar SingleAttackerV2VRSUScenario.node[18].nic.mac1609_4 NumInternalContention 0
scalar SingleAttackerV2VRSUScenario.node[18].nic.mac1609_4 totalBusyTime 4.005538
scalar SingleAttackerV2VRSUScenario.node[18].nic.mac1609_4 NodeDownCount 0
scalar SingleAttackerV2VRSUScenario.node[18].nic.mac1609_4 retriesExceeded:count 0
attr source org_car2x_veins_modules_mac_sigRetriesExceeded
scalar SingleAttackerV2VRSUScenario.node[18].nic.mac1609_4 sentAcks:count 0
attr source org_car2x_veins_modules_mac_sigSentAck
scalar SingleAttackerV2VRSUScenario.node[18].nic.mac1609_4 sentPackets:count 146
attr source org_car2x_veins_modules_mac_sigSentPacket
scalar SingleAttackerV2VRSUScenario.node[18].nic.mac1609_4 collisions:count 0
attr source org_car2x_veins_modules_mac_sigCollision
scalar SingleAttackerV2VRSUScenario.node[18].nic.mac1609_4 channelBusy:timeavg 0.027624399999999
attr source org_car2x_veins_modules_mac_sigChannelBusy
scalar SingleAttackerV2VRSUScenario.node[18].veinsmobility startTime 55
scalar SingleAttackerV2VRSUScenario.node[18].veinsmobility totalTime 145
scalar SingleAttackerV2VRSUScenario.node[18].veinsmobility stopTime 200
scalar SingleAttackerV2VRSUScenario.node[18].veinsmobility minSpeed 4.0059353912065
scalar SingleAttackerV2VRSUScenario.node[18].veinsmobility maxSpeed 13.491267315593
scalar SingleAttackerV2VRSUScenario.node[18].veinsmobility totalDistance 1129.6801985299
scalar SingleAttackerV2VRSUScenario.node[18].veinsmobility totalCO2Emission 255.71170538618
scalar SingleAttackerV2VRSUScenario.node[20].status nodeStatusData:count 0
attr source nodeStatusChanged
scalar SingleAttackerV2VRSUScenario.node[20].appl generatedWSMs 1
scalar SingleAttackerV2VRSUScenario.node[20].appl receivedWSMs 7116
scalar SingleAttackerV2VRSUScenario.node[20].appl generatedBSMs 142
scalar SingleAttackerV2VRSUScenario.node[20].appl receivedBSMs 2633
scalar SingleAttackerV2VRSUScenario.node[20].appl generatedWSAs 0
scalar SingleAttackerV2VRSUScenario.node[20].appl receivedWSAs 0
scalar SingleAttackerV2VRSUScenario.node[20].nic.phy80211p busyTime 0.043323380281673
scalar SingleAttackerV2VRSUScenario.node[20].nic.mac1609_4 ReceivedUnicastPackets 0
scalar SingleAttackerV2VRSUScenario.node[20].nic.mac1609_4 ReceivedBroadcasts 9749
scalar SingleAttackerV2VRSUScenario.node[20].nic.mac1609_4 SentPackets 143
scalar SingleAttackerV2VRSUScenario.node[20].nic.mac1609_4 SentAcknowledgements 0
scalar SingleAttackerV2VRSUScenario.node[20].nic.mac1609_4 RetriesExceeded 0
scalar SingleAttackerV2VRSUScenario.node[20].nic.mac1609_4 SNIRLostPackets 18337
scalar SingleAttackerV2VRSUScenario.node[20].nic.mac1609_4 RXTXLostPackets 3
scalar SingleAttackerV2VRSUScenario.node[20].nic.mac1609_4 TotalLostPackets 18340
scalar SingleAttackerV2VRSUScenario.node[20].nic.mac1609_4 DroppedPacketsInMac 0
scalar SingleAttackerV2VRSUScenario.node[20].nic.mac1609_4 TooLittleTime 0
scalar SingleAttackerV2VRSUScenario.node[20].nic.mac1609_4 TimesIntoBackoff 147
scalar SingleAttackerV2VRSUScenario.node[20].nic.mac1609_4 SlotsBackoff 188
scalar SingleAttackerV2VRSUScenario.node[20].nic.mac1609_4 NumInternalContention 0
scalar SingleAttackerV2VRSUScenario.node[20].nic.mac1609_4 totalBusyTime 5.949303
scalar SingleAttackerV2VRSUScenario.node[20].nic.mac1609_4 NodeDownCount 0
scalar SingleAttackerV2VRSUScenario.node[20].nic.mac1609_4 retriesExceeded:count 0
attr source org_car2x_veins_modules_mac_sigRetriesExceeded
scalar SingleAttackerV2VRSUScenario.node[20].nic.mac1609_4 sentAcks:count 0
attr source org_car2x_veins_modules_mac_sigSentAck
scalar SingleAttackerV2VRSUScenario.node[20].nic.mac1609_4 sentPackets:count 143
attr source org_car2x_veins_modules_mac_sigSentPacket
scalar SingleAttackerV2VRSUScenario.node[20].nic.mac1609_4 collisions:count 0
attr source org_car2x_veins_modules_mac_sigCollision
scalar SingleAttackerV2VRSUScenario.node[20].nic.mac1609_4 channelBusy:timeavg 0.041896499999985
attr source org_car2x_veins_modules_mac_sigChannelBusy
scalar SingleAttackerV2VRSUScenario.node[20].veinsmobility startTime 58
scalar SingleAttackerV2VRSUScenario.node[20].veinsmobility totalTime 142
scalar SingleAttackerV2VRSUScenario.node[20].veinsmobility stopTime 200
scalar SingleAttackerV2VRSUScenario.node[20].veinsmobility minSpeed 4.1077073881151
scalar SingleAttackerV2VRSUScenario.node[20].veinsmobility maxSpeed 13.992575319903
scalar SingleAttackerV2VRSUScenario.node[20].veinsmobility totalDistance 1113.1911003095
scalar SingleAttackerV2VRSUScenario.node[20].veinsmobility totalCO2Emission 257.23169594681
scalar SingleAttackerV2VRSUScenario.node[21].status nodeStatusData:count 0
attr source nodeStatusChanged
scalar SingleAttackerV2VRSUScenario.node[21].appl generatedWSMs 1
scalar SingleAttackerV2VRSUScenario.node[21].appl receivedWSMs 8462
scalar SingleAttackerV2VRSUScenario.node[21].appl generatedBSMs 139
scalar SingleAttackerV2VRSUScenario.node[21].appl receivedBSMs 2600
scalar SingleAttackerV2VRSUScenario.node[21].appl generatedWSAs 0
scalar SingleAttackerV2VRSUScenario.node[21].appl receivedWSAs 0
scalar SingleAttackerV2VRSUScenario.node[21].nic.phy80211p busyTime 0.051904575539536
scalar SingleAttackerV2VRSUScenario.node[21].nic.mac1609_4 ReceivedUnicastPackets 0
scalar SingleAttackerV2VRSUScenario.node[21].nic.mac1609_4 ReceivedBroadcasts 11062
scalar SingleAttackerV2VRSUScenario.node[21].nic.mac1609_4 SentPackets 140
scalar SingleAttackerV2VRSUScenario.node[21].nic.mac1609_4 SentAcknowledgements 0
scalar SingleAttackerV2VRSUScenario.node[21].nic.mac1609_4 RetriesExceeded 0
scalar SingleAttackerV2VRSUScenario.node[21].nic.mac1609_4 SNIRLostPackets 21603
scalar SingleAttackerV2VRSUScenario.node[21].nic.mac1609_4 RXTXLostPackets 4
scalar SingleAttackerV2VRSUScenario.node[21].nic.mac1609_4 TotalLostPackets 21607
scalar SingleAttackerV2VRSUScenario.node[21].nic.mac1609_4 DroppedPacketsInMac 0
scalar SingleAttackerV2VRSUScenario.node[21].nic.mac1609_4 TooLittleTime 0
scalar SingleAttackerV2VRSUScenario.node[21].nic.mac1609_4 TimesIntoBackoff 148
scalar SingleAttackerV2VRSUScenario.node[21].nic.mac1609_4 SlotsBackoff 203
scalar SingleAttackerV2VRSUScenario.node[21].nic.mac1609_4 NumInternalContention 0
scalar SingleAttackerV2VRSUScenario.node[21].nic.mac1609_4 totalBusyTime 6.569632716555
scalar SingleAttackerV2VRSUScenario.node[21].nic.mac1609_4 NodeDownCount 0
scalar SingleAttackerV2VRSUScenario.node[21].nic.mac1609_4 retriesExceeded:count 0
attr source org_car2x_veins_modules_mac_sigRetriesExceeded
scalar SingleAttackerV2VRSUScenario.node[21].nic.mac1609_4 sentAcks:count 0
attr source org_car2x_veins_modules_mac_sigSentAck
scalar SingleAttackerV2VRSUScenario.node[21].nic.mac1609_4 sentPackets:count 140
attr source org_car2x_veins_modules_mac_sigSentPacket
scalar SingleAttackerV2VRSUScenario.node[21].nic.mac1609_4 collisions:count 0
attr source org_car2x_veins_modules_mac_sigCollision
scalar SingleAttackerV2VRSUScenario.node[21].nic.mac1609_4 channelBusy:timeavg 0.047263544723394
attr source org_car2x_veins_modules_mac_sigChannelBusy
scalar SingleAttackerV2VRSUScenario.node[21].veinsmobility startTime 61
scalar SingleAttackerV2VRSUScenario.node[21].veinsmobility totalTime 139
scalar SingleAttackerV2VRSUScenario.node[21].veinsmobility stopTime 200
scalar SingleAttackerV2VRSUScenario.node[21].veinsmobility minSpeed 3.9168212624827
scalar SingleAttackerV2VRSUScenario.node[21].veinsmobility maxSpeed 13.992055477151
scalar SingleAttackerV2VRSUScenario.node[21].veinsmobility totalDistance 1098.1522055836
scalar SingleAttackerV2VRSUScenario.node[21].veinsmobility totalCO2Emission 252.77523028428
scalar SingleAttackerV2VRSUScenario.node[22].status nodeStatusData:count 0
attr source nodeStatusChanged
scalar SingleAttackerV2VRSUScenario.node[22].appl generatedWSMs 1
scalar SingleAttackerV2VRSUScenario.node[22].appl receivedWSMs 6521
scalar SingleAttackerV2VRSUScenario.node[22].appl generatedBSMs 136
scalar SingleAttackerV2VRSUScenario.node[22].appl receivedBSMs 2605
scalar SingleAttackerV2VRSUScenario.node[22].appl generatedWSAs 0
scalar SingleAttackerV2VRSUScenario.node[22].appl receivedWSAs 0
scalar SingleAttackerV2VRSUScenario.node[22].nic.phy80211p busyTime 0.039372941176463
scalar SingleAttackerV2VRSUScenario.node[22].nic.mac1609_4 ReceivedUnicastPackets 0
scalar SingleAttackerV2VRSUScenario.node[22].nic.mac1609_4 ReceivedBroadcasts 9126
scalar SingleAttackerV2VRSUScenario.node[22].nic.mac1609_4 SentPackets 137
scalar SingleAttackerV2VRSUScenario.node[22].nic.mac1609_4 SentAcknowledgements 0
scalar SingleAttackerV2VRSUScenario.node[22].nic.mac1609_4 RetriesExceeded 0
scalar SingleAttackerV2VRSUScenario.node[22].nic.mac1609_4 SNIRLostPackets 15510
scalar SingleAttackerV2VRSUScenario.node[22].nic.mac1609_4 RXTXLostPackets 3
scalar SingleAttackerV2VRSUScenario.node[22].nic.mac1609_4 TotalLostPackets 15513
scalar SingleAttackerV2VRSUScenario.node[22].nic.mac1609_4 DroppedPacketsInMac 0
scalar SingleAttackerV2VRSUScenario.node[22].nic.mac1609_4 TooLittleTime 0
scalar SingleAttackerV2VRSUScenario.node[22].nic.mac1609_4 TimesIntoBackoff 143
scalar SingleAttackerV2VRSUScenario.node[22].nic.mac1609_4 SlotsBackoff 212
scalar SingleAttackerV2VRSUScenario.node[22].nic.mac1609_4 NumInternalContention 0
scalar SingleAttackerV2VRSUScenario.node[22].nic.mac1609_4 totalBusyTime 5.138225
scalar SingleAttackerV2VRSUScenario.node[22].nic.mac1609_4 NodeDownCount 0
scalar SingleAttackerV2VRSUScenario.node[22].nic.mac1609_4 retriesExceeded:count 0
attr source org_car2x_veins_modules_mac_sigRetriesExceeded
scalar SingleAttackerV2VRSUScenario.node[22].nic.mac1609_4 sentAcks:count 0
attr source org_car2x_veins_modules_mac_sigSentAck
scalar SingleAttackerV2VRSUScenario.node[22].nic.mac1609_4 sentPackets:count 137
attr source org_car2x_veins_modules_mac_sigSentPacket
scalar SingleAttackerV2VRSUScenario.node[22].nic.mac1609_4 collisions:count 0
attr source org_car2x_veins_modules_mac_sigCollision
scalar SingleAttackerV2VRSUScenario.node[22].nic.mac1609_4 channelBusy:timeavg 0.037781066176466
attr source org_car2x_veins_modules_mac_sigChannelBusy
scalar SingleAttackerV2VRSUScenario.node[22].veinsmobility startTime 64
scalar SingleAttackerV2VRSUScenario.node[22].veinsmobility totalTime 136
scalar SingleAttackerV2VRSUScenario.node[22].veinsmobility stopTime 200
scalar SingleAttackerV2VRSUScenario.node[22].veinsmobility minSpeed 4.0312268259559
scalar SingleAttackerV2VRSUScenario.node[22].veinsmobility maxSpeed 13.995400461038
scalar SingleAttackerV2VRSUScenario.node[22].veinsmobility totalDistance 1082.7471937108
scalar SingleAttackerV2VRSUScenario.node[22].veinsmobility totalCO2Emission 253.3444342905
scalar SingleAttackerV2VRSUScenario.node[23].status nodeStatusData:count 0
attr source nodeStatusChanged
scalar SingleAttackerV2VRSUScenario.node[23].appl generatedWSMs 1
scalar SingleAttackerV2VRSUScenario.node[23].appl receivedWSMs 9628
scalar SingleAttackerV2VRSUScenario.node[23].appl generatedBSMs 133
scalar SingleAttackerV2VRSUScenario.node[23].appl receivedBSMs 2629
scalar SingleAttackerV2VRSUScenario.node[23].appl generatedWSAs 0
scalar SingleAttackerV2VRSUScenario.node[23].appl receivedWSAs 0
scalar SingleAttackerV2VRSUScenario.node[23].nic.phy80211p busyTime 0.046394887218026
scalar SingleAttackerV2VRSUScenario.node[23].nic.mac1609_4 ReceivedUnicastPackets 0
scalar SingleAttackerV2VRSUScenario.node[23].nic.mac1609_4 ReceivedBroadcasts 12257
scalar SingleAttackerV2VRSUScenario.node[23].nic.mac1609_4 SentPackets 134
scalar SingleAttackerV2VRSUScenario.node[23].nic.mac1609_4 SentAcknowledgements 0
scalar SingleAttackerV2VRSUScenario.node[23].nic.mac1609_4 RetriesExceeded 0
scalar SingleAttackerV2VRSUScenario.node[23].nic.mac1609_4 SNIRLostPackets 15918
scalar SingleAttackerV2VRSUScenario.node[23].nic.mac1609_4 RXTXLostPackets 2
scalar SingleAttackerV2VRSUScenario.node[23].nic.mac1609_4 TotalLostPackets 15920
scalar SingleAttackerV2VRSUScenario.node[23].nic.mac1609_4 DroppedPacketsInMac 0
scalar SingleAttackerV2VRSUScenario.node[23].nic.mac1609_4 TooLittleTime 0
scalar SingleAttackerV2VRSUScenario.node[23].nic.mac1609_4 TimesIntoBackoff 138
scalar SingleAttackerV2VRSUScenario.node[23].nic.mac1609_4 SlotsBackoff 229
scalar SingleAttackerV2VRSUScenario.node[23].nic.mac1609_4 NumInternalContention 0
scalar SingleAttackerV2VRSUScenario.node[23].nic.mac1609_4 totalBusyTime 6.165318
scalar SingleAttackerV2VRSUScenario.node[23].nic.mac1609_4 NodeDownCount 0
scalar SingleAttackerV2VRSUScenario.node[23].nic.mac1609_4 retriesExceeded:count 0
attr source org_car2x_veins_modules_mac_sigRetriesExceeded
scalar SingleAttackerV2VRSUScenario.node[23].nic.mac1609_4 sentAcks:count 0
attr source org_car2x_veins_modules_mac_sigSentAck
scalar SingleAttackerV2VRSUScenario.node[23].nic.mac1609_4 sentPackets:count 134
attr source org_car2x_veins_modules_mac_sigSentPacket
scalar SingleAttackerV2VRSUScenario.node[23].nic.mac1609_4 collisions:count 0
attr source org_car2x_veins_modules_mac_sigCollision
scalar SingleAttackerV2VRSUScenario.node[23].nic.mac1609_4 channelBusy:timeavg 0.046355774436071
attr source org_car2x_veins_modules_mac_sigChannelBusy
scalar SingleAttackerV2VRSUScenario.node[23].veinsmobility startTime 67
scalar SingleAttackerV2VRSUScenario.node[23].veinsmobility totalTime 133
scalar SingleAttackerV2VRSUScenario.node[23].veinsmobility stopTime 200
scalar SingleAttackerV2VRSUScenario.node[23].veinsmobility minSpeed 0
scalar SingleAttackerV2VRSUScenario.node[23].veinsmobility maxSpeed 12.487867338249
scalar SingleAttackerV2VRSUScenario.node[23].veinsmobility totalDistance 978.05421764405
scalar SingleAttackerV2VRSUScenario.node[23].veinsmobility totalCO2Emission 235.1709136007
scalar SingleAttackerV2VRSUScenario.node[24].status nodeStatusData:count 0
attr source nodeStatusChanged
scalar SingleAttackerV2VRSUScenario.node[24].appl generatedWSMs 1
scalar SingleAttackerV2VRSUScenario.node[24].appl receivedWSMs 8537
scalar SingleAttackerV2VRSUScenario.node[24].appl generatedBSMs 130
scalar SingleAttackerV2VRSUScenario.node[24].appl receivedBSMs 2594
scalar SingleAttackerV2VRSUScenario.node[24].appl generatedWSAs 0
scalar SingleAttackerV2VRSUScenario.node[24].appl receivedWSAs 0
scalar SingleAttackerV2VRSUScenario.node[24].nic.phy80211p busyTime 0.040377723076917
scalar SingleAttackerV2VRSUScenario.node[24].nic.mac1609_4 ReceivedUnicastPackets 0
scalar SingleAttackerV2VRSUScenario.node[24].nic.mac1609_4 ReceivedBroadcasts 11131
scalar SingleAttackerV2VRSUScenario.node[24].nic.mac1609_4 SentPackets 131
scalar SingleAttackerV2VRSUScenario.node[24].nic.mac1609_4 SentAcknowledgements 0
scalar SingleAttackerV2VRSUScenario.node[24].nic.mac1609_4 RetriesExceeded 0
scalar SingleAttackerV2VRSUScenario.node[24].nic.mac1609_4 SNIRLostPackets 13047
scalar SingleAttackerV2VRSUScenario.node[24].nic.mac1609_4 RXTXLostPackets 0
scalar SingleAttackerV2VRSUScenario.node[24].nic.mac1609_4 TotalLostPackets 13047
scalar SingleAttackerV2VRSUScenario.node[24].nic.mac1609_4 DroppedPacketsInMac 0
scalar SingleAttackerV2VRSUScenario.node[24].nic.mac1609_4 TooLittleTime 0
scalar SingleAttackerV2VRSUScenario.node[24].nic.mac1609_4 TimesIntoBackoff 140
scalar SingleAttackerV2VRSUScenario.node[24].nic.mac1609_4 SlotsBackoff 189
[...]
scalar SingleAttackerV2VRSUScenario.node[61].nic.mac1609_4 RXTXLostPackets 0
scalar SingleAttackerV2VRSUScenario.node[61].nic.mac1609_4 TotalLostPackets 36
scalar SingleAttackerV2VRSUScenario.node[61].nic.mac1609_4 DroppedPacketsInMac 0
scalar SingleAttackerV2VRSUScenario.node[61].nic.mac1609_4 TooLittleTime 0
scalar SingleAttackerV2VRSUScenario.node[61].nic.mac1609_4 TimesIntoBackoff 19
scalar SingleAttackerV2VRSUScenario.node[61].nic.mac1609_4 SlotsBackoff 37
scalar SingleAttackerV2VRSUScenario.node[61].nic.mac1609_4 NumInternalContention 0
scalar SingleAttackerV2VRSUScenario.node[61].nic.mac1609_4 totalBusyTime 0.037043
scalar SingleAttackerV2VRSUScenario.node[61].nic.mac1609_4 NodeDownCount 0
scalar SingleAttackerV2VRSUScenario.node[61].nic.mac1609_4 retriesExceeded:count 0
attr source org_car2x_veins_modules_mac_sigRetriesExceeded
scalar SingleAttackerV2VRSUScenario.node[61].nic.mac1609_4 sentAcks:count 0
attr source org_car2x_veins_modules_mac_sigSentAck
scalar SingleAttackerV2VRSUScenario.node[61].nic.mac1609_4 sentPackets:count 19
attr source org_car2x_veins_modules_mac_sigSentPacket
scalar SingleAttackerV2VRSUScenario.node[61].nic.mac1609_4 collisions:count 0
attr source org_car2x_veins_modules_mac_sigCollision
scalar SingleAttackerV2VRSUScenario.node[61].nic.mac1609_4 channelBusy:timeavg 0.0019496315789474
attr source org_car2x_veins_modules_mac_sigChannelBusy
scalar SingleAttackerV2VRSUScenario.node[61].veinsmobility startTime 181
scalar SingleAttackerV2VRSUScenario.node[61].veinsmobility totalTime 19
scalar SingleAttackerV2VRSUScenario.node[61].veinsmobility stopTime 200
scalar SingleAttackerV2VRSUScenario.node[61].veinsmobility minSpeed 3.7929458832696
scalar SingleAttackerV2VRSUScenario.node[61].veinsmobility maxSpeed 12.866452709229
scalar SingleAttackerV2VRSUScenario.node[61].veinsmobility totalDistance 206.49013039058
scalar SingleAttackerV2VRSUScenario.node[61].veinsmobility totalCO2Emission 48.76998923392
scalar SingleAttackerV2VRSUScenario.node[62].status nodeStatusData:count 0
attr source nodeStatusChanged
scalar SingleAttackerV2VRSUScenario.node[62].appl generatedWSMs 0
scalar SingleAttackerV2VRSUScenario.node[62].appl receivedWSMs 0
scalar SingleAttackerV2VRSUScenario.node[62].appl generatedBSMs 16
scalar SingleAttackerV2VRSUScenario.node[62].appl receivedBSMs 269
scalar SingleAttackerV2VRSUScenario.node[62].appl generatedWSAs 0
scalar SingleAttackerV2VRSUScenario.node[62].appl receivedWSAs 0
scalar SingleAttackerV2VRSUScenario.node[62].nic.phy80211p busyTime 0.001885
scalar SingleAttackerV2VRSUScenario.node[62].nic.mac1609_4 ReceivedUnicastPackets 0
scalar SingleAttackerV2VRSUScenario.node[62].nic.mac1609_4 ReceivedBroadcasts 269
scalar SingleAttackerV2VRSUScenario.node[62].nic.mac1609_4 SentPackets 16
scalar SingleAttackerV2VRSUScenario.node[62].nic.mac1609_4 SentAcknowledgements 0
scalar SingleAttackerV2VRSUScenario.node[62].nic.mac1609_4 RetriesExceeded 0
scalar SingleAttackerV2VRSUScenario.node[62].nic.mac1609_4 SNIRLostPackets 21
scalar SingleAttackerV2VRSUScenario.node[62].nic.mac1609_4 RXTXLostPackets 0
scalar SingleAttackerV2VRSUScenario.node[62].nic.mac1609_4 TotalLostPackets 21
scalar SingleAttackerV2VRSUScenario.node[62].nic.mac1609_4 DroppedPacketsInMac 0
scalar SingleAttackerV2VRSUScenario.node[62].nic.mac1609_4 TooLittleTime 0
scalar SingleAttackerV2VRSUScenario.node[62].nic.mac1609_4 TimesIntoBackoff 16
scalar SingleAttackerV2VRSUScenario.node[62].nic.mac1609_4 SlotsBackoff 29
scalar SingleAttackerV2VRSUScenario.node[62].nic.mac1609_4 NumInternalContention 0
scalar SingleAttackerV2VRSUScenario.node[62].nic.mac1609_4 totalBusyTime 0.03184
scalar SingleAttackerV2VRSUScenario.node[62].nic.mac1609_4 NodeDownCount 0
scalar SingleAttackerV2VRSUScenario.node[62].nic.mac1609_4 retriesExceeded:count 0
attr source org_car2x_veins_modules_mac_sigRetriesExceeded
scalar SingleAttackerV2VRSUScenario.node[62].nic.mac1609_4 sentAcks:count 0
attr source org_car2x_veins_modules_mac_sigSentAck
scalar SingleAttackerV2VRSUScenario.node[62].nic.mac1609_4 sentPackets:count 16
attr source org_car2x_veins_modules_mac_sigSentPacket
scalar SingleAttackerV2VRSUScenario.node[62].nic.mac1609_4 collisions:count 0
attr source org_car2x_veins_modules_mac_sigCollision
scalar SingleAttackerV2VRSUScenario.node[62].nic.mac1609_4 channelBusy:timeavg 0.00199
attr source org_car2x_veins_modules_mac_sigChannelBusy
scalar SingleAttackerV2VRSUScenario.node[62].veinsmobility startTime 184
scalar SingleAttackerV2VRSUScenario.node[62].veinsmobility totalTime 16
scalar SingleAttackerV2VRSUScenario.node[62].veinsmobility stopTime 200
scalar SingleAttackerV2VRSUScenario.node[62].veinsmobility minSpeed 3.9643027338979
scalar SingleAttackerV2VRSUScenario.node[62].veinsmobility maxSpeed 13.381397598181
scalar SingleAttackerV2VRSUScenario.node[62].veinsmobility totalDistance 179.74476277022
scalar SingleAttackerV2VRSUScenario.node[62].veinsmobility totalCO2Emission 48.896685733173
scalar SingleAttackerV2VRSUScenario.node[63].status nodeStatusData:count 0
attr source nodeStatusChanged
scalar SingleAttackerV2VRSUScenario.node[63].appl generatedWSMs 0
scalar SingleAttackerV2VRSUScenario.node[63].appl receivedWSMs 0
scalar SingleAttackerV2VRSUScenario.node[63].appl generatedBSMs 13
scalar SingleAttackerV2VRSUScenario.node[63].appl receivedBSMs 232
scalar SingleAttackerV2VRSUScenario.node[63].appl generatedWSAs 0
scalar SingleAttackerV2VRSUScenario.node[63].appl receivedWSAs 0
scalar SingleAttackerV2VRSUScenario.node[63].nic.phy80211p busyTime 0.001984
scalar SingleAttackerV2VRSUScenario.node[63].nic.mac1609_4 ReceivedUnicastPackets 0
scalar SingleAttackerV2VRSUScenario.node[63].nic.mac1609_4 ReceivedBroadcasts 232
scalar SingleAttackerV2VRSUScenario.node[63].nic.mac1609_4 SentPackets 13
scalar SingleAttackerV2VRSUScenario.node[63].nic.mac1609_4 SentAcknowledgements 0
scalar SingleAttackerV2VRSUScenario.node[63].nic.mac1609_4 RetriesExceeded 0
scalar SingleAttackerV2VRSUScenario.node[63].nic.mac1609_4 SNIRLostPackets 16
scalar SingleAttackerV2VRSUScenario.node[63].nic.mac1609_4 RXTXLostPackets 0
scalar SingleAttackerV2VRSUScenario.node[63].nic.mac1609_4 TotalLostPackets 16
scalar SingleAttackerV2VRSUScenario.node[63].nic.mac1609_4 DroppedPacketsInMac 0
scalar SingleAttackerV2VRSUScenario.node[63].nic.mac1609_4 TooLittleTime 0
scalar SingleAttackerV2VRSUScenario.node[63].nic.mac1609_4 TimesIntoBackoff 13
scalar SingleAttackerV2VRSUScenario.node[63].nic.mac1609_4 SlotsBackoff 13
scalar SingleAttackerV2VRSUScenario.node[63].nic.mac1609_4 NumInternalContention 0
scalar SingleAttackerV2VRSUScenario.node[63].nic.mac1609_4 totalBusyTime 0.027157
scalar SingleAttackerV2VRSUScenario.node[63].nic.mac1609_4 NodeDownCount 0
scalar SingleAttackerV2VRSUScenario.node[63].nic.mac1609_4 retriesExceeded:count 0
attr source org_car2x_veins_modules_mac_sigRetriesExceeded
scalar SingleAttackerV2VRSUScenario.node[63].nic.mac1609_4 sentAcks:count 0
attr source org_car2x_veins_modules_mac_sigSentAck
scalar SingleAttackerV2VRSUScenario.node[63].nic.mac1609_4 sentPackets:count 13
attr source org_car2x_veins_modules_mac_sigSentPacket
scalar SingleAttackerV2VRSUScenario.node[63].nic.mac1609_4 collisions:count 0
attr source org_car2x_veins_modules_mac_sigCollision
scalar SingleAttackerV2VRSUScenario.node[63].nic.mac1609_4 channelBusy:timeavg 0.002089
attr source org_car2x_veins_modules_mac_sigChannelBusy
scalar SingleAttackerV2VRSUScenario.node[63].veinsmobility startTime 187
scalar SingleAttackerV2VRSUScenario.node[63].veinsmobility totalTime 13
scalar SingleAttackerV2VRSUScenario.node[63].veinsmobility stopTime 200
scalar SingleAttackerV2VRSUScenario.node[63].veinsmobility minSpeed 3.9763429005056
scalar SingleAttackerV2VRSUScenario.node[63].veinsmobility maxSpeed 13.667736121664
scalar SingleAttackerV2VRSUScenario.node[63].veinsmobility totalDistance 141.82310870486
scalar SingleAttackerV2VRSUScenario.node[63].veinsmobility totalCO2Emission 45.211135954906
scalar SingleAttackerV2VRSUScenario.node[64].status nodeStatusData:count 0
attr source nodeStatusChanged
scalar SingleAttackerV2VRSUScenario.node[64].appl generatedWSMs 0
scalar SingleAttackerV2VRSUScenario.node[64].appl receivedWSMs 0
scalar SingleAttackerV2VRSUScenario.node[64].appl generatedBSMs 10
scalar SingleAttackerV2VRSUScenario.node[64].appl receivedBSMs 186
scalar SingleAttackerV2VRSUScenario.node[64].appl generatedWSAs 0
scalar SingleAttackerV2VRSUScenario.node[64].appl receivedWSAs 0
scalar SingleAttackerV2VRSUScenario.node[64].nic.phy80211p busyTime 0.0020904
scalar SingleAttackerV2VRSUScenario.node[64].nic.mac1609_4 ReceivedUnicastPackets 0
scalar SingleAttackerV2VRSUScenario.node[64].nic.mac1609_4 ReceivedBroadcasts 186
scalar SingleAttackerV2VRSUScenario.node[64].nic.mac1609_4 SentPackets 10
scalar SingleAttackerV2VRSUScenario.node[64].nic.mac1609_4 SentAcknowledgements 0
scalar SingleAttackerV2VRSUScenario.node[64].nic.mac1609_4 RetriesExceeded 0
scalar SingleAttackerV2VRSUScenario.node[64].nic.mac1609_4 SNIRLostPackets 15
scalar SingleAttackerV2VRSUScenario.node[64].nic.mac1609_4 RXTXLostPackets 0
scalar SingleAttackerV2VRSUScenario.node[64].nic.mac1609_4 TotalLostPackets 15
scalar SingleAttackerV2VRSUScenario.node[64].nic.mac1609_4 DroppedPacketsInMac 0
scalar SingleAttackerV2VRSUScenario.node[64].nic.mac1609_4 TooLittleTime 0
scalar SingleAttackerV2VRSUScenario.node[64].nic.mac1609_4 TimesIntoBackoff 10
scalar SingleAttackerV2VRSUScenario.node[64].nic.mac1609_4 SlotsBackoff 22
scalar SingleAttackerV2VRSUScenario.node[64].nic.mac1609_4 NumInternalContention 0
scalar SingleAttackerV2VRSUScenario.node[64].nic.mac1609_4 totalBusyTime 0.021954
scalar SingleAttackerV2VRSUScenario.node[64].nic.mac1609_4 NodeDownCount 0
scalar SingleAttackerV2VRSUScenario.node[64].nic.mac1609_4 retriesExceeded:count 0
attr source org_car2x_veins_modules_mac_sigRetriesExceeded
scalar SingleAttackerV2VRSUScenario.node[64].nic.mac1609_4 sentAcks:count 0
attr source org_car2x_veins_modules_mac_sigSentAck
scalar SingleAttackerV2VRSUScenario.node[64].nic.mac1609_4 sentPackets:count 10
attr source org_car2x_veins_modules_mac_sigSentPacket
scalar SingleAttackerV2VRSUScenario.node[64].nic.mac1609_4 collisions:count 0
attr source org_car2x_veins_modules_mac_sigCollision
scalar SingleAttackerV2VRSUScenario.node[64].nic.mac1609_4 channelBusy:timeavg 0.0021954
attr source org_car2x_veins_modules_mac_sigChannelBusy
scalar SingleAttackerV2VRSUScenario.node[64].veinsmobility startTime 190
scalar SingleAttackerV2VRSUScenario.node[64].veinsmobility totalTime 10
scalar SingleAttackerV2VRSUScenario.node[64].veinsmobility stopTime 200
scalar SingleAttackerV2VRSUScenario.node[64].veinsmobility minSpeed 4.0010424112291
scalar SingleAttackerV2VRSUScenario.node[64].veinsmobility maxSpeed 13.977768345661
scalar SingleAttackerV2VRSUScenario.node[64].veinsmobility totalDistance 105.00141460445
scalar SingleAttackerV2VRSUScenario.node[64].veinsmobility totalCO2Emission 40.578044894371
scalar SingleAttackerV2VRSUScenario.node[65].status nodeStatusData:count 0
attr source nodeStatusChanged
scalar SingleAttackerV2VRSUScenario.node[65].appl generatedWSMs 0
scalar SingleAttackerV2VRSUScenario.node[65].appl receivedWSMs 0
scalar SingleAttackerV2VRSUScenario.node[65].appl generatedBSMs 7
scalar SingleAttackerV2VRSUScenario.node[65].appl receivedBSMs 139
scalar SingleAttackerV2VRSUScenario.node[65].appl generatedWSAs 0
scalar SingleAttackerV2VRSUScenario.node[65].appl receivedWSAs 0
scalar SingleAttackerV2VRSUScenario.node[65].nic.phy80211p busyTime 0.0022582857142857
scalar SingleAttackerV2VRSUScenario.node[65].nic.mac1609_4 ReceivedUnicastPackets 0
scalar SingleAttackerV2VRSUScenario.node[65].nic.mac1609_4 ReceivedBroadcasts 139
scalar SingleAttackerV2VRSUScenario.node[65].nic.mac1609_4 SentPackets 7
scalar SingleAttackerV2VRSUScenario.node[65].nic.mac1609_4 SentAcknowledgements 0
scalar SingleAttackerV2VRSUScenario.node[65].nic.mac1609_4 RetriesExceeded 0
scalar SingleAttackerV2VRSUScenario.node[65].nic.mac1609_4 SNIRLostPackets 13
scalar SingleAttackerV2VRSUScenario.node[65].nic.mac1609_4 RXTXLostPackets 0
scalar SingleAttackerV2VRSUScenario.node[65].nic.mac1609_4 TotalLostPackets 13
scalar SingleAttackerV2VRSUScenario.node[65].nic.mac1609_4 DroppedPacketsInMac 0
scalar SingleAttackerV2VRSUScenario.node[65].nic.mac1609_4 TooLittleTime 0
scalar SingleAttackerV2VRSUScenario.node[65].nic.mac1609_4 TimesIntoBackoff 7
scalar SingleAttackerV2VRSUScenario.node[65].nic.mac1609_4 SlotsBackoff 14
scalar SingleAttackerV2VRSUScenario.node[65].nic.mac1609_4 NumInternalContention 0
scalar SingleAttackerV2VRSUScenario.node[65].nic.mac1609_4 totalBusyTime 0.016543
scalar SingleAttackerV2VRSUScenario.node[65].nic.mac1609_4 NodeDownCount 0
scalar SingleAttackerV2VRSUScenario.node[65].nic.mac1609_4 retriesExceeded:count 0
attr source org_car2x_veins_modules_mac_sigRetriesExceeded
scalar SingleAttackerV2VRSUScenario.node[65].nic.mac1609_4 sentAcks:count 0
attr source org_car2x_veins_modules_mac_sigSentAck
scalar SingleAttackerV2VRSUScenario.node[65].nic.mac1609_4 sentPackets:count 7
attr source org_car2x_veins_modules_mac_sigSentPacket
scalar SingleAttackerV2VRSUScenario.node[65].nic.mac1609_4 collisions:count 0
attr source org_car2x_veins_modules_mac_sigCollision
scalar SingleAttackerV2VRSUScenario.node[65].nic.mac1609_4 channelBusy:timeavg 0.0023632857142857
attr source org_car2x_veins_modules_mac_sigChannelBusy
scalar SingleAttackerV2VRSUScenario.node[65].veinsmobility startTime 193
scalar SingleAttackerV2VRSUScenario.node[65].veinsmobility totalTime 7
scalar SingleAttackerV2VRSUScenario.node[65].veinsmobility stopTime 200
scalar SingleAttackerV2VRSUScenario.node[65].veinsmobility minSpeed 4.0963891555032
scalar SingleAttackerV2VRSUScenario.node[65].veinsmobility maxSpeed 13.89932602556
scalar SingleAttackerV2VRSUScenario.node[65].veinsmobility totalDistance 62.429312282623
scalar SingleAttackerV2VRSUScenario.node[65].veinsmobility totalCO2Emission 33.963789179338
scalar SingleAttackerV2VRSUScenario.node[66].status nodeStatusData:count 0
attr source nodeStatusChanged
scalar SingleAttackerV2VRSUScenario.node[66].appl generatedWSMs 0
scalar SingleAttackerV2VRSUScenario.node[66].appl receivedWSMs 0
scalar SingleAttackerV2VRSUScenario.node[66].appl generatedBSMs 4
scalar SingleAttackerV2VRSUScenario.node[66].appl receivedBSMs 78
scalar SingleAttackerV2VRSUScenario.node[66].appl generatedWSAs 0
scalar SingleAttackerV2VRSUScenario.node[66].appl receivedWSAs 0
scalar SingleAttackerV2VRSUScenario.node[66].nic.phy80211p busyTime 0.002392
scalar SingleAttackerV2VRSUScenario.node[66].nic.mac1609_4 ReceivedUnicastPackets 0
scalar SingleAttackerV2VRSUScenario.node[66].nic.mac1609_4 ReceivedBroadcasts 78
scalar SingleAttackerV2VRSUScenario.node[66].nic.mac1609_4 SentPackets 4
scalar SingleAttackerV2VRSUScenario.node[66].nic.mac1609_4 SentAcknowledgements 0
scalar SingleAttackerV2VRSUScenario.node[66].nic.mac1609_4 RetriesExceeded 0
scalar SingleAttackerV2VRSUScenario.node[66].nic.mac1609_4 SNIRLostPackets 14
scalar SingleAttackerV2VRSUScenario.node[66].nic.mac1609_4 RXTXLostPackets 0
scalar SingleAttackerV2VRSUScenario.node[66].nic.mac1609_4 TotalLostPackets 14
scalar SingleAttackerV2VRSUScenario.node[66].nic.mac1609_4 DroppedPacketsInMac 0
scalar SingleAttackerV2VRSUScenario.node[66].nic.mac1609_4 TooLittleTime 0
scalar SingleAttackerV2VRSUScenario.node[66].nic.mac1609_4 TimesIntoBackoff 4
scalar SingleAttackerV2VRSUScenario.node[66].nic.mac1609_4 SlotsBackoff 1
scalar SingleAttackerV2VRSUScenario.node[66].nic.mac1609_4 NumInternalContention 0
scalar SingleAttackerV2VRSUScenario.node[66].nic.mac1609_4 totalBusyTime 0.009988
scalar SingleAttackerV2VRSUScenario.node[66].nic.mac1609_4 NodeDownCount 0
scalar SingleAttackerV2VRSUScenario.node[66].nic.mac1609_4 retriesExceeded:count 0
attr source org_car2x_veins_modules_mac_sigRetriesExceeded
scalar SingleAttackerV2VRSUScenario.node[66].nic.mac1609_4 sentAcks:count 0
attr source org_car2x_veins_modules_mac_sigSentAck
scalar SingleAttackerV2VRSUScenario.node[66].nic.mac1609_4 sentPackets:count 4
attr source org_car2x_veins_modules_mac_sigSentPacket
scalar SingleAttackerV2VRSUScenario.node[66].nic.mac1609_4 collisions:count 0
attr source org_car2x_veins_modules_mac_sigCollision
scalar SingleAttackerV2VRSUScenario.node[66].nic.mac1609_4 channelBusy:timeavg 0.002497
attr source org_car2x_veins_modules_mac_sigChannelBusy
scalar SingleAttackerV2VRSUScenario.node[66].veinsmobility startTime 196
scalar SingleAttackerV2VRSUScenario.node[66].veinsmobility totalTime 4
scalar SingleAttackerV2VRSUScenario.node[66].veinsmobility stopTime 200
scalar SingleAttackerV2VRSUScenario.node[66].veinsmobility minSpeed 3.8129964193388
scalar SingleAttackerV2VRSUScenario.node[66].veinsmobility maxSpeed 9.5155542239978
scalar SingleAttackerV2VRSUScenario.node[66].veinsmobility totalDistance 23.170299826305
scalar SingleAttackerV2VRSUScenario.node[66].veinsmobility totalCO2Emission 15.032761093514
scalar SingleAttackerV2VRSUScenario.node[67].status nodeStatusData:count 0
attr source nodeStatusChanged
scalar SingleAttackerV2VRSUScenario.node[67].appl generatedWSMs 0
scalar SingleAttackerV2VRSUScenario.node[67].appl receivedWSMs 0
scalar SingleAttackerV2VRSUScenario.node[67].appl generatedBSMs 1
scalar SingleAttackerV2VRSUScenario.node[67].appl receivedBSMs 19
scalar SingleAttackerV2VRSUScenario.node[67].appl generatedWSAs 0
scalar SingleAttackerV2VRSUScenario.node[67].appl receivedWSAs 0
scalar SingleAttackerV2VRSUScenario.node[67].nic.phy80211p busyTime 0.002496
scalar SingleAttackerV2VRSUScenario.node[67].nic.mac1609_4 ReceivedUnicastPackets 0
scalar SingleAttackerV2VRSUScenario.node[67].nic.mac1609_4 ReceivedBroadcasts 19
scalar SingleAttackerV2VRSUScenario.node[67].nic.mac1609_4 SentPackets 1
scalar SingleAttackerV2VRSUScenario.node[67].nic.mac1609_4 SentAcknowledgements 0
scalar SingleAttackerV2VRSUScenario.node[67].nic.mac1609_4 RetriesExceeded 0
scalar SingleAttackerV2VRSUScenario.node[67].nic.mac1609_4 SNIRLostPackets 5
scalar SingleAttackerV2VRSUScenario.node[67].nic.mac1609_4 RXTXLostPackets 0
scalar SingleAttackerV2VRSUScenario.node[67].nic.mac1609_4 TotalLostPackets 5
scalar SingleAttackerV2VRSUScenario.node[67].nic.mac1609_4 DroppedPacketsInMac 0
scalar SingleAttackerV2VRSUScenario.node[67].nic.mac1609_4 TooLittleTime 0
scalar SingleAttackerV2VRSUScenario.node[67].nic.mac1609_4 TimesIntoBackoff 1
scalar SingleAttackerV2VRSUScenario.node[67].nic.mac1609_4 SlotsBackoff 1
scalar SingleAttackerV2VRSUScenario.node[67].nic.mac1609_4 NumInternalContention 0
scalar SingleAttackerV2VRSUScenario.node[67].nic.mac1609_4 totalBusyTime 0.002601
scalar SingleAttackerV2VRSUScenario.node[67].nic.mac1609_4 NodeDownCount 0
scalar SingleAttackerV2VRSUScenario.node[67].nic.mac1609_4 retriesExceeded:count 0
attr source org_car2x_veins_modules_mac_sigRetriesExceeded
scalar SingleAttackerV2VRSUScenario.node[67].nic.mac1609_4 sentAcks:count 0
attr source org_car2x_veins_modules_mac_sigSentAck
scalar SingleAttackerV2VRSUScenario.node[67].nic.mac1609_4 sentPackets:count 1
attr source org_car2x_veins_modules_mac_sigSentPacket
scalar SingleAttackerV2VRSUScenario.node[67].nic.mac1609_4 collisions:count 0
attr source org_car2x_veins_modules_mac_sigCollision
scalar SingleAttackerV2VRSUScenario.node[67].nic.mac1609_4 channelBusy:timeavg 0.002601
attr source org_car2x_veins_modules_mac_sigChannelBusy
scalar SingleAttackerV2VRSUScenario.node[67].veinsmobility startTime 199
scalar SingleAttackerV2VRSUScenario.node[67].veinsmobility totalTime 1
scalar SingleAttackerV2VRSUScenario.node[67].veinsmobility stopTime 200
scalar SingleAttackerV2VRSUScenario.node[67].veinsmobility minSpeed 4.0133306786479
scalar SingleAttackerV2VRSUScenario.node[67].veinsmobility maxSpeed 4.0133306786479
scalar SingleAttackerV2VRSUScenario.node[67].veinsmobility totalDistance 3.1013316946711
scalar SingleAttackerV2VRSUScenario.node[67].veinsmobility totalCO2Emission 0

