version 2
run WithBeaconing-0-20230724-01:28:24-25303
attr configname WithBeaconing
attr datetime 20230724-01:28:24
attr experiment WithBeaconing
attr inifile omnetpp_pva.ini
attr iterationvars ""
attr iterationvarsf ""
attr measurement ""
attr network PriorityV2VAttack
attr processid 25303
attr repetition 0
attr replication #0
attr resultdir results
attr runnumber 0
attr seedset 0
param *.node[*].appl.sendBeacons true
param *.playgroundSizeX 2500m
param *.playgroundSizeY 2500m
param *.playgroundSizeZ 50m
param *.annotations.draw true
param *.obstacles.obstacles "xmldoc(\"config.xml\", \"//AnalogueModel[@type='SimpleObstacleShadowing']/obstacles\")"
param *.manager.updateInterval 1s
param *.manager.host "\"localhost\""
param *.manager.port 9999
param *.manager.autoShutdown true
param *.manager.launchConfig "xmldoc(\"erlangen.launchd.xml\")"
param *.connectionManager.sendDirect true
param *.connectionManager.maxInterfDist 2600m
param *.connectionManager.drawMaxIntfDist false
param *.**.nic.mac1609_4.useServiceChannel false
param *.**.nic.mac1609_4.txPower 20mW
param *.**.nic.mac1609_4.bitrate 6Mbps
param *.**.nic.phy80211p.minPowerLevel -110dBm
param *.**.nic.phy80211p.useNoiseFloor true
param *.**.nic.phy80211p.noiseFloor -98dBm
param *.**.nic.phy80211p.decider "xmldoc(\"config.xml\")"
param *.**.nic.phy80211p.analogueModels "xmldoc(\"config.xml\")"
param *.**.nic.phy80211p.usePropagationDelay true
param *.**.nic.phy80211p.antenna "xmldoc(\"antenna.xml\", \"/root/Antenna[@id='monopole']\")"
param *.node[*].nic.phy80211p.antennaOffsetY "0 m"
param *.node[*].nic.phy80211p.antennaOffsetZ "1.895 m"
param *.attacker[*].nic.phy80211p.antennaOffsetY "0 m"
param *.attacker[*].nic.phy80211p.antennaOffsetZ "1.895 m"
param *.manager.moduleType "\"vtype1=org.car2x.veins.nodes.Car *=org.car2x.veins.nodes.Car\""
param *.manager.moduleName "\"vtype1=attacker *=node\""
param *.node[*].applType "\"TraCIDemo11p\""
param *.node[*].appl.headerLength "80 bit"
param *.node[*].appl.sendBeacons true
param *.node[*].appl.dataOnSch false
param *.node[*].appl.beaconInterval 1s
param *.node[*].appl.dataUserPriority 7
param *.attacker[*].applType "\"TraCIV2Vp\""
param *.attacker[*].appl.headerLength "80 bit"
param *.attacker[*].appl.sendBeacons true
param *.attacker[*].appl.dataOnSch false
param *.attacker[*].appl.beaconInterval 1s
param *.attacker[*].appl.dataUserPriority 1
param *.node[*].veinsmobility.x 0
param *.node[*].veinsmobility.y 0
param *.node[*].veinsmobility.z 0
param *.node[*].veinsmobility.setHostSpeed false
param *.attacker[*].veinsmobility.x 0
param *.attacker[*].veinsmobility.y 0
param *.attacker[*].veinsmobility.z 0
param *.attacker[*].veinsmobility.setHostSpeed false

scalar PriorityV2VAttack.attacker[19].appl generatedWSMs 690000
scalar PriorityV2VAttack.attacker[19].appl receivedWSMs 14
scalar PriorityV2VAttack.attacker[19].appl generatedBSMs 26
scalar PriorityV2VAttack.attacker[19].appl receivedBSMs 328
scalar PriorityV2VAttack.attacker[19].appl generatedWSAs 0
scalar PriorityV2VAttack.attacker[19].appl receivedWSAs 0
scalar PriorityV2VAttack.attacker[19].nic.phy80211p busyTime 0.0015018461538462
scalar PriorityV2VAttack.attacker[19].nic.mac1609_4 ReceivedUnicastPackets 0
scalar PriorityV2VAttack.attacker[19].nic.mac1609_4 ReceivedBroadcasts 342
scalar PriorityV2VAttack.attacker[19].nic.mac1609_4 SentPackets 49953
scalar PriorityV2VAttack.attacker[19].nic.mac1609_4 SentAcknowledgements 0
scalar PriorityV2VAttack.attacker[19].nic.mac1609_4 RetriesExceeded 0
scalar PriorityV2VAttack.attacker[19].nic.mac1609_4 SNIRLostPackets 15
scalar PriorityV2VAttack.attacker[19].nic.mac1609_4 RXTXLostPackets 7
scalar PriorityV2VAttack.attacker[19].nic.mac1609_4 TotalLostPackets 22
scalar PriorityV2VAttack.attacker[19].nic.mac1609_4 DroppedPacketsInMac 0
scalar PriorityV2VAttack.attacker[19].nic.mac1609_4 TooLittleTime 0
scalar PriorityV2VAttack.attacker[19].nic.mac1609_4 TimesIntoBackoff 49964
scalar PriorityV2VAttack.attacker[19].nic.mac1609_4 SlotsBackoff 372808
scalar PriorityV2VAttack.attacker[19].nic.mac1609_4 NumInternalContention 1
scalar PriorityV2VAttack.attacker[19].nic.mac1609_4 totalBusyTime 11.674769
scalar PriorityV2VAttack.attacker[19].nic.mac1609_4 NodeDownCount 0
scalar PriorityV2VAttack.attacker[19].nic.mac1609_4 retriesExceeded:count 0
attr source org_car2x_veins_modules_mac_sigRetriesExceeded
scalar PriorityV2VAttack.attacker[19].nic.mac1609_4 sentAcks:count 0
attr source org_car2x_veins_modules_mac_sigSentAck
scalar PriorityV2VAttack.attacker[19].nic.mac1609_4 sentPackets:count 49953
attr source org_car2x_veins_modules_mac_sigSentPacket
scalar PriorityV2VAttack.attacker[19].nic.mac1609_4 collisions:count 0
attr source org_car2x_veins_modules_mac_sigCollision
scalar PriorityV2VAttack.attacker[19].nic.mac1609_4 channelBusy:timeavg 0.44902957692275
attr source org_car2x_veins_modules_mac_sigChannelBusy
scalar PriorityV2VAttack.attacker[19].veinsmobility startTime 57
scalar PriorityV2VAttack.attacker[19].veinsmobility totalTime 25
scalar PriorityV2VAttack.attacker[19].veinsmobility stopTime 83
scalar PriorityV2VAttack.attacker[19].veinsmobility minSpeed 3.2022692176314
scalar PriorityV2VAttack.attacker[19].veinsmobility maxSpeed 13.998651232829
scalar PriorityV2VAttack.attacker[19].veinsmobility totalDistance 306.5760273435
scalar PriorityV2VAttack.attacker[19].veinsmobility totalCO2Emission 71.255618900282
scalar PriorityV2VAttack.manager roiArea 0
scalar PriorityV2VAttack.node[0].appl generatedWSMs 1
scalar PriorityV2VAttack.node[0].appl receivedWSMs 49933
scalar PriorityV2VAttack.node[0].appl generatedBSMs 199
scalar PriorityV2VAttack.node[0].appl receivedBSMs 995
scalar PriorityV2VAttack.node[0].appl generatedWSAs 0
scalar PriorityV2VAttack.node[0].appl receivedWSAs 0
scalar PriorityV2VAttack.node[0].nic.phy80211p busyTime 0.058917788944724
scalar PriorityV2VAttack.node[0].nic.mac1609_4 ReceivedUnicastPackets 0
scalar PriorityV2VAttack.node[0].nic.mac1609_4 ReceivedBroadcasts 50928
scalar PriorityV2VAttack.node[0].nic.mac1609_4 SentPackets 200
scalar PriorityV2VAttack.node[0].nic.mac1609_4 SentAcknowledgements 0
scalar PriorityV2VAttack.node[0].nic.mac1609_4 RetriesExceeded 0
scalar PriorityV2VAttack.node[0].nic.mac1609_4 SNIRLostPackets 348
scalar PriorityV2VAttack.node[0].nic.mac1609_4 RXTXLostPackets 1
scalar PriorityV2VAttack.node[0].nic.mac1609_4 TotalLostPackets 349
scalar PriorityV2VAttack.node[0].nic.mac1609_4 DroppedPacketsInMac 0
scalar PriorityV2VAttack.node[0].nic.mac1609_4 TooLittleTime 0
scalar PriorityV2VAttack.node[0].nic.mac1609_4 TimesIntoBackoff 213
scalar PriorityV2VAttack.node[0].nic.mac1609_4 SlotsBackoff 323
scalar PriorityV2VAttack.node[0].nic.mac1609_4 NumInternalContention 0
scalar PriorityV2VAttack.node[0].nic.mac1609_4 totalBusyTime 11.745248
scalar PriorityV2VAttack.node[0].nic.mac1609_4 NodeDownCount 0
scalar PriorityV2VAttack.node[0].nic.mac1609_4 retriesExceeded:count 0
attr source org_car2x_veins_modules_mac_sigRetriesExceeded
scalar PriorityV2VAttack.node[0].nic.mac1609_4 sentAcks:count 0
attr source org_car2x_veins_modules_mac_sigSentAck
scalar PriorityV2VAttack.node[0].nic.mac1609_4 sentPackets:count 200
attr source org_car2x_veins_modules_mac_sigSentPacket
scalar PriorityV2VAttack.node[0].nic.mac1609_4 collisions:count 0
attr source org_car2x_veins_modules_mac_sigCollision
scalar PriorityV2VAttack.node[0].nic.mac1609_4 channelBusy:timeavg 0.059021346733669
attr source org_car2x_veins_modules_mac_sigChannelBusy
scalar PriorityV2VAttack.node[0].veinsmobility startTime 1
scalar PriorityV2VAttack.node[0].veinsmobility totalTime 199
scalar PriorityV2VAttack.node[0].veinsmobility stopTime 200
scalar PriorityV2VAttack.node[0].veinsmobility minSpeed 4.1061966058897
scalar PriorityV2VAttack.node[0].veinsmobility maxSpeed 13.999815066161
scalar PriorityV2VAttack.node[0].veinsmobility totalDistance 2693.6458966827
scalar PriorityV2VAttack.node[0].veinsmobility totalCO2Emission 456.26419906984
scalar PriorityV2VAttack.node[1].appl generatedWSMs 1
scalar PriorityV2VAttack.node[1].appl receivedWSMs 49934
scalar PriorityV2VAttack.node[1].appl generatedBSMs 196
scalar PriorityV2VAttack.node[1].appl receivedBSMs 1058
scalar PriorityV2VAttack.node[1].appl generatedWSAs 0
scalar PriorityV2VAttack.node[1].appl receivedWSAs 0
scalar PriorityV2VAttack.node[1].nic.phy80211p busyTime 0.059885755102042
scalar PriorityV2VAttack.node[1].nic.mac1609_4 ReceivedUnicastPackets 0
scalar PriorityV2VAttack.node[1].nic.mac1609_4 ReceivedBroadcasts 50992
scalar PriorityV2VAttack.node[1].nic.mac1609_4 SentPackets 197
scalar PriorityV2VAttack.node[1].nic.mac1609_4 SentAcknowledgements 0
scalar PriorityV2VAttack.node[1].nic.mac1609_4 RetriesExceeded 0
scalar PriorityV2VAttack.node[1].nic.mac1609_4 SNIRLostPackets 405
scalar PriorityV2VAttack.node[1].nic.mac1609_4 RXTXLostPackets 0
scalar PriorityV2VAttack.node[1].nic.mac1609_4 TotalLostPackets 405
scalar PriorityV2VAttack.node[1].nic.mac1609_4 DroppedPacketsInMac 0
scalar PriorityV2VAttack.node[1].nic.mac1609_4 TooLittleTime 0
scalar PriorityV2VAttack.node[1].nic.mac1609_4 TimesIntoBackoff 209
scalar PriorityV2VAttack.node[1].nic.mac1609_4 SlotsBackoff 320
scalar PriorityV2VAttack.node[1].nic.mac1609_4 NumInternalContention 0
scalar PriorityV2VAttack.node[1].nic.mac1609_4 totalBusyTime 11.757565
scalar PriorityV2VAttack.node[1].nic.mac1609_4 NodeDownCount 0
scalar PriorityV2VAttack.node[1].nic.mac1609_4 retriesExceeded:count 0
attr source org_car2x_veins_modules_mac_sigRetriesExceeded
scalar PriorityV2VAttack.node[1].nic.mac1609_4 sentAcks:count 0
attr source org_car2x_veins_modules_mac_sigSentAck
scalar PriorityV2VAttack.node[1].nic.mac1609_4 sentPackets:count 197
attr source org_car2x_veins_modules_mac_sigSentPacket
scalar PriorityV2VAttack.node[1].nic.mac1609_4 collisions:count 0
attr source org_car2x_veins_modules_mac_sigCollision
scalar PriorityV2VAttack.node[1].nic.mac1609_4 channelBusy:timeavg 0.059987576530613
attr source org_car2x_veins_modules_mac_sigChannelBusy
scalar PriorityV2VAttack.node[1].veinsmobility startTime 4
scalar PriorityV2VAttack.node[1].veinsmobility totalTime 196
scalar PriorityV2VAttack.node[1].veinsmobility stopTime 200
scalar PriorityV2VAttack.node[1].veinsmobility minSpeed 4.0332649588119
scalar PriorityV2VAttack.node[1].veinsmobility maxSpeed 13.994007172689
scalar PriorityV2VAttack.node[1].veinsmobility totalDistance 2648.1521121417
scalar PriorityV2VAttack.node[1].veinsmobility totalCO2Emission 446.2633090298
scalar PriorityV2VAttack.node[2].appl generatedWSMs 1
scalar PriorityV2VAttack.node[2].appl receivedWSMs 49935
scalar PriorityV2VAttack.node[2].appl generatedBSMs 193
scalar PriorityV2VAttack.node[2].appl receivedBSMs 1106
scalar PriorityV2VAttack.node[2].appl generatedWSAs 0
scalar PriorityV2VAttack.node[2].appl receivedWSAs 0
scalar PriorityV2VAttack.node[2].nic.phy80211p busyTime 0.06086756476684
scalar PriorityV2VAttack.node[2].nic.mac1609_4 ReceivedUnicastPackets 0
scalar PriorityV2VAttack.node[2].nic.mac1609_4 ReceivedBroadcasts 51041
scalar PriorityV2VAttack.node[2].nic.mac1609_4 SentPackets 194
scalar PriorityV2VAttack.node[2].nic.mac1609_4 SentAcknowledgements 0
scalar PriorityV2VAttack.node[2].nic.mac1609_4 RetriesExceeded 0
scalar PriorityV2VAttack.node[2].nic.mac1609_4 SNIRLostPackets 453
scalar PriorityV2VAttack.node[2].nic.mac1609_4 RXTXLostPackets 3
scalar PriorityV2VAttack.node[2].nic.mac1609_4 TotalLostPackets 456
scalar PriorityV2VAttack.node[2].nic.mac1609_4 DroppedPacketsInMac 0
scalar PriorityV2VAttack.node[2].nic.mac1609_4 TooLittleTime 0
scalar PriorityV2VAttack.node[2].nic.mac1609_4 TimesIntoBackoff 204
scalar PriorityV2VAttack.node[2].nic.mac1609_4 SlotsBackoff 303
scalar PriorityV2VAttack.node[2].nic.mac1609_4 NumInternalContention 0
scalar PriorityV2VAttack.node[2].nic.mac1609_4 totalBusyTime 11.76729
scalar PriorityV2VAttack.node[2].nic.mac1609_4 NodeDownCount 0
scalar PriorityV2VAttack.node[2].nic.mac1609_4 retriesExceeded:count 0
attr source org_car2x_veins_modules_mac_sigRetriesExceeded
scalar PriorityV2VAttack.node[2].nic.mac1609_4 sentAcks:count 0
attr source org_car2x_veins_modules_mac_sigSentAck
scalar PriorityV2VAttack.node[2].nic.mac1609_4 sentPackets:count 194
attr source org_car2x_veins_modules_mac_sigSentPacket
scalar PriorityV2VAttack.node[2].nic.mac1609_4 collisions:count 0
attr source org_car2x_veins_modules_mac_sigCollision
scalar PriorityV2VAttack.node[2].nic.mac1609_4 channelBusy:timeavg 0.060970414507773
attr source org_car2x_veins_modules_mac_sigChannelBusy
scalar PriorityV2VAttack.node[2].veinsmobility startTime 7
scalar PriorityV2VAttack.node[2].veinsmobility totalTime 193
scalar PriorityV2VAttack.node[2].veinsmobility stopTime 200
scalar PriorityV2VAttack.node[2].veinsmobility minSpeed 3.930963162637
scalar PriorityV2VAttack.node[2].veinsmobility maxSpeed 13.998553946475
scalar PriorityV2VAttack.node[2].veinsmobility totalDistance 2609.1393008112
scalar PriorityV2VAttack.node[2].veinsmobility totalCO2Emission 440.32907931197
scalar PriorityV2VAttack.node[3].appl generatedWSMs 1
scalar PriorityV2VAttack.node[3].appl receivedWSMs 49933
scalar PriorityV2VAttack.node[3].appl generatedBSMs 190
scalar PriorityV2VAttack.node[3].appl receivedBSMs 1185
scalar PriorityV2VAttack.node[3].appl generatedWSAs 0
scalar PriorityV2VAttack.node[3].appl receivedWSAs 0
scalar PriorityV2VAttack.node[3].nic.phy80211p busyTime 0.061925473684212
scalar PriorityV2VAttack.node[3].nic.mac1609_4 ReceivedUnicastPackets 0
scalar PriorityV2VAttack.node[3].nic.mac1609_4 ReceivedBroadcasts 51118
scalar PriorityV2VAttack.node[3].nic.mac1609_4 SentPackets 191
scalar PriorityV2VAttack.node[3].nic.mac1609_4 SentAcknowledgements 0
scalar PriorityV2VAttack.node[3].nic.mac1609_4 RetriesExceeded 0
scalar PriorityV2VAttack.node[3].nic.mac1609_4 SNIRLostPackets 548
scalar PriorityV2VAttack.node[3].nic.mac1609_4 RXTXLostPackets 1
scalar PriorityV2VAttack.node[3].nic.mac1609_4 TotalLostPackets 549
scalar PriorityV2VAttack.node[3].nic.mac1609_4 DroppedPacketsInMac 0
scalar PriorityV2VAttack.node[3].nic.mac1609_4 TooLittleTime 0
scalar PriorityV2VAttack.node[3].nic.mac1609_4 TimesIntoBackoff 202
scalar PriorityV2VAttack.node[3].nic.mac1609_4 SlotsBackoff 323
scalar PriorityV2VAttack.node[3].nic.mac1609_4 NumInternalContention 0
scalar PriorityV2VAttack.node[3].nic.mac1609_4 totalBusyTime 11.784644143513
scalar PriorityV2VAttack.node[3].nic.mac1609_4 NodeDownCount 0
scalar PriorityV2VAttack.node[3].nic.mac1609_4 retriesExceeded:count 0
attr source org_car2x_veins_modules_mac_sigRetriesExceeded
scalar PriorityV2VAttack.node[3].nic.mac1609_4 sentAcks:count 0
attr source org_car2x_veins_modules_mac_sigSentAck
scalar PriorityV2VAttack.node[3].nic.mac1609_4 sentPackets:count 191
attr source org_car2x_veins_modules_mac_sigSentPacket
scalar PriorityV2VAttack.node[3].nic.mac1609_4 collisions:count 0
attr source org_car2x_veins_modules_mac_sigCollision
scalar PriorityV2VAttack.node[3].nic.mac1609_4 channelBusy:timeavg 0.062024442860596
attr source org_car2x_veins_modules_mac_sigChannelBusy
scalar PriorityV2VAttack.node[3].veinsmobility startTime 10
scalar PriorityV2VAttack.node[3].veinsmobility totalTime 190
scalar PriorityV2VAttack.node[3].veinsmobility stopTime 200
scalar PriorityV2VAttack.node[3].veinsmobility minSpeed 4.0076977833542
scalar PriorityV2VAttack.node[3].veinsmobility maxSpeed 13.999527041174
scalar PriorityV2VAttack.node[3].veinsmobility totalDistance 2537.2663323635
scalar PriorityV2VAttack.node[3].veinsmobility totalCO2Emission 434.51471612558
scalar PriorityV2VAttack.node[4].appl generatedWSMs 1
scalar PriorityV2VAttack.node[4].appl receivedWSMs 37364
scalar PriorityV2VAttack.node[4].appl generatedBSMs 187
scalar PriorityV2VAttack.node[4].appl receivedBSMs 2767
scalar PriorityV2VAttack.node[4].appl generatedWSAs 0
scalar PriorityV2VAttack.node[4].appl receivedWSAs 0
scalar PriorityV2VAttack.node[4].nic.phy80211p busyTime 0.048066909090882
scalar PriorityV2VAttack.node[4].nic.mac1609_4 ReceivedUnicastPackets 0
scalar PriorityV2VAttack.node[4].nic.mac1609_4 ReceivedBroadcasts 40131
scalar PriorityV2VAttack.node[4].nic.mac1609_4 SentPackets 188
scalar PriorityV2VAttack.node[4].nic.mac1609_4 SentAcknowledgements 0
scalar PriorityV2VAttack.node[4].nic.mac1609_4 RetriesExceeded 0
scalar PriorityV2VAttack.node[4].nic.mac1609_4 SNIRLostPackets 233
scalar PriorityV2VAttack.node[4].nic.mac1609_4 RXTXLostPackets 0
scalar PriorityV2VAttack.node[4].nic.mac1609_4 TotalLostPackets 233
scalar PriorityV2VAttack.node[4].nic.mac1609_4 DroppedPacketsInMac 0
scalar PriorityV2VAttack.node[4].nic.mac1609_4 TooLittleTime 0
scalar PriorityV2VAttack.node[4].nic.mac1609_4 TimesIntoBackoff 194
scalar PriorityV2VAttack.node[4].nic.mac1609_4 SlotsBackoff 278
scalar PriorityV2VAttack.node[4].nic.mac1609_4 NumInternalContention 0
scalar PriorityV2VAttack.node[4].nic.mac1609_4 totalBusyTime 8.997772
scalar PriorityV2VAttack.node[4].nic.mac1609_4 NodeDownCount 0
scalar PriorityV2VAttack.node[4].nic.mac1609_4 retriesExceeded:count 0
attr source org_car2x_veins_modules_mac_sigRetriesExceeded
scalar PriorityV2VAttack.node[4].nic.mac1609_4 sentAcks:count 0
attr source org_car2x_veins_modules_mac_sigSentAck
scalar PriorityV2VAttack.node[4].nic.mac1609_4 sentPackets:count 188
attr source org_car2x_veins_modules_mac_sigSentPacket
scalar PriorityV2VAttack.node[4].nic.mac1609_4 collisions:count 0
attr source org_car2x_veins_modules_mac_sigCollision
scalar PriorityV2VAttack.node[4].nic.mac1609_4 channelBusy:timeavg 0.048116427807459
attr source org_car2x_veins_modules_mac_sigChannelBusy
scalar PriorityV2VAttack.node[4].veinsmobility startTime 13
scalar PriorityV2VAttack.node[4].veinsmobility totalTime 187
scalar PriorityV2VAttack.node[4].veinsmobility stopTime 200
scalar PriorityV2VAttack.node[4].veinsmobility minSpeed 4.1202440707026
scalar PriorityV2VAttack.node[4].veinsmobility maxSpeed 13.998611656229
scalar PriorityV2VAttack.node[4].veinsmobility totalDistance 1845.6015299764
scalar PriorityV2VAttack.node[4].veinsmobility totalCO2Emission 363.71881255918
scalar PriorityV2VAttack.node[5].appl generatedWSMs 1
scalar PriorityV2VAttack.node[5].appl receivedWSMs 39440
scalar PriorityV2VAttack.node[5].appl generatedBSMs 184
scalar PriorityV2VAttack.node[5].appl receivedBSMs 2790
scalar PriorityV2VAttack.node[5].appl generatedWSAs 0
scalar PriorityV2VAttack.node[5].appl receivedWSAs 0
scalar PriorityV2VAttack.node[5].nic.phy80211p busyTime 0.051494695652152
scalar PriorityV2VAttack.node[5].nic.mac1609_4 ReceivedUnicastPackets 0
scalar PriorityV2VAttack.node[5].nic.mac1609_4 ReceivedBroadcasts 42230
scalar PriorityV2VAttack.node[5].nic.mac1609_4 SentPackets 185
scalar PriorityV2VAttack.node[5].nic.mac1609_4 SentAcknowledgements 0
scalar PriorityV2VAttack.node[5].nic.mac1609_4 RetriesExceeded 0
scalar PriorityV2VAttack.node[5].nic.mac1609_4 SNIRLostPackets 252
scalar PriorityV2VAttack.node[5].nic.mac1609_4 RXTXLostPackets 0
scalar PriorityV2VAttack.node[5].nic.mac1609_4 TotalLostPackets 252
scalar PriorityV2VAttack.node[5].nic.mac1609_4 DroppedPacketsInMac 0
scalar PriorityV2VAttack.node[5].nic.mac1609_4 TooLittleTime 0
scalar PriorityV2VAttack.node[5].nic.mac1609_4 TimesIntoBackoff 193
scalar PriorityV2VAttack.node[5].nic.mac1609_4 SlotsBackoff 304
scalar PriorityV2VAttack.node[5].nic.mac1609_4 NumInternalContention 0
scalar PriorityV2VAttack.node[5].nic.mac1609_4 totalBusyTime 9.483345
scalar PriorityV2VAttack.node[5].nic.mac1609_4 NodeDownCount 0
scalar PriorityV2VAttack.node[5].nic.mac1609_4 retriesExceeded:count 0
attr source org_car2x_veins_modules_mac_sigRetriesExceeded
scalar PriorityV2VAttack.node[5].nic.mac1609_4 sentAcks:count 0
attr source org_car2x_veins_modules_mac_sigSentAck
scalar PriorityV2VAttack.node[5].nic.mac1609_4 sentPackets:count 185
attr source org_car2x_veins_modules_mac_sigSentPacket
scalar PriorityV2VAttack.node[5].nic.mac1609_4 collisions:count 0
attr source org_car2x_veins_modules_mac_sigCollision
scalar PriorityV2VAttack.node[5].nic.mac1609_4 channelBusy:timeavg 0.051539918478238
attr source org_car2x_veins_modules_mac_sigChannelBusy
scalar PriorityV2VAttack.node[5].veinsmobility startTime 16
scalar PriorityV2VAttack.node[5].veinsmobility totalTime 184
scalar PriorityV2VAttack.node[5].veinsmobility stopTime 200
scalar PriorityV2VAttack.node[5].veinsmobility minSpeed 4.11254450365
scalar PriorityV2VAttack.node[5].veinsmobility maxSpeed 13.999388816282
scalar PriorityV2VAttack.node[5].veinsmobility totalDistance 1830.059143786
scalar PriorityV2VAttack.node[5].veinsmobility totalCO2Emission 357.4329134363
scalar PriorityV2VAttack.node[6].appl generatedWSMs 1
scalar PriorityV2VAttack.node[6].appl receivedWSMs 45683
scalar PriorityV2VAttack.node[6].appl generatedBSMs 181
scalar PriorityV2VAttack.node[6].appl receivedBSMs 2849
scalar PriorityV2VAttack.node[6].appl generatedWSAs 0
scalar PriorityV2VAttack.node[6].appl receivedWSAs 0
scalar PriorityV2VAttack.node[6].nic.phy80211p busyTime 0.060431248618778
scalar PriorityV2VAttack.node[6].nic.mac1609_4 ReceivedUnicastPackets 0
scalar PriorityV2VAttack.node[6].nic.mac1609_4 ReceivedBroadcasts 48532
scalar PriorityV2VAttack.node[6].nic.mac1609_4 SentPackets 182
scalar PriorityV2VAttack.node[6].nic.mac1609_4 SentAcknowledgements 0
scalar PriorityV2VAttack.node[6].nic.mac1609_4 RetriesExceeded 0
scalar PriorityV2VAttack.node[6].nic.mac1609_4 SNIRLostPackets 313
scalar PriorityV2VAttack.node[6].nic.mac1609_4 RXTXLostPackets 0
scalar PriorityV2VAttack.node[6].nic.mac1609_4 TotalLostPackets 313
scalar PriorityV2VAttack.node[6].nic.mac1609_4 DroppedPacketsInMac 0
scalar PriorityV2VAttack.node[6].nic.mac1609_4 TooLittleTime 0
scalar PriorityV2VAttack.node[6].nic.mac1609_4 TimesIntoBackoff 197
scalar PriorityV2VAttack.node[6].nic.mac1609_4 SlotsBackoff 289
scalar PriorityV2VAttack.node[6].nic.mac1609_4 NumInternalContention 0
scalar PriorityV2VAttack.node[6].nic.mac1609_4 totalBusyTime 10.942774
scalar PriorityV2VAttack.node[6].nic.mac1609_4 NodeDownCount 0
scalar PriorityV2VAttack.node[6].nic.mac1609_4 retriesExceeded:count 0
attr source org_car2x_veins_modules_mac_sigRetriesExceeded
scalar PriorityV2VAttack.node[6].nic.mac1609_4 sentAcks:count 0
attr source org_car2x_veins_modules_mac_sigSentAck
scalar PriorityV2VAttack.node[6].nic.mac1609_4 sentPackets:count 182
attr source org_car2x_veins_modules_mac_sigSentPacket
scalar PriorityV2VAttack.node[6].nic.mac1609_4 collisions:count 0
attr source org_car2x_veins_modules_mac_sigCollision
scalar PriorityV2VAttack.node[6].nic.mac1609_4 channelBusy:timeavg 0.06045731491712
attr source org_car2x_veins_modules_mac_sigChannelBusy
scalar PriorityV2VAttack.node[6].veinsmobility startTime 19
scalar PriorityV2VAttack.node[6].veinsmobility totalTime 181
scalar PriorityV2VAttack.node[6].veinsmobility stopTime 200
scalar PriorityV2VAttack.node[6].veinsmobility minSpeed 4.067372106413
scalar PriorityV2VAttack.node[6].veinsmobility maxSpeed 12.741513219538
scalar PriorityV2VAttack.node[6].veinsmobility totalDistance 1704.2663523329
scalar PriorityV2VAttack.node[6].veinsmobility totalCO2Emission 325.4290988932
scalar PriorityV2VAttack.node[7].appl generatedWSMs 1
scalar PriorityV2VAttack.node[7].appl receivedWSMs 45679
scalar PriorityV2VAttack.node[7].appl generatedBSMs 178
scalar PriorityV2VAttack.node[7].appl receivedBSMs 2839
scalar PriorityV2VAttack.node[7].appl generatedWSAs 0
scalar PriorityV2VAttack.node[7].appl receivedWSAs 0
scalar PriorityV2VAttack.node[7].nic.phy80211p busyTime 0.064176089887639
scalar PriorityV2VAttack.node[7].nic.mac1609_4 ReceivedUnicastPackets 0
scalar PriorityV2VAttack.node[7].nic.mac1609_4 ReceivedBroadcasts 48518
scalar PriorityV2VAttack.node[7].nic.mac1609_4 SentPackets 179
scalar PriorityV2VAttack.node[7].nic.mac1609_4 SentAcknowledgements 0
scalar PriorityV2VAttack.node[7].nic.mac1609_4 RetriesExceeded 0
scalar PriorityV2VAttack.node[7].nic.mac1609_4 SNIRLostPackets 2416
scalar PriorityV2VAttack.node[7].nic.mac1609_4 RXTXLostPackets 0
scalar PriorityV2VAttack.node[7].nic.mac1609_4 TotalLostPackets 2416
scalar PriorityV2VAttack.node[7].nic.mac1609_4 DroppedPacketsInMac 0
scalar PriorityV2VAttack.node[7].nic.mac1609_4 TooLittleTime 0
scalar PriorityV2VAttack.node[7].nic.mac1609_4 TimesIntoBackoff 192
scalar PriorityV2VAttack.node[7].nic.mac1609_4 SlotsBackoff 299
scalar PriorityV2VAttack.node[7].nic.mac1609_4 NumInternalContention 0
scalar PriorityV2VAttack.node[7].nic.mac1609_4 totalBusyTime 11.426659
scalar PriorityV2VAttack.node[7].nic.mac1609_4 NodeDownCount 0
scalar PriorityV2VAttack.node[7].nic.mac1609_4 retriesExceeded:count 0
attr source org_car2x_veins_modules_mac_sigRetriesExceeded
scalar PriorityV2VAttack.node[7].nic.mac1609_4 sentAcks:count 0
attr source org_car2x_veins_modules_mac_sigSentAck
scalar PriorityV2VAttack.node[7].nic.mac1609_4 sentPackets:count 179
attr source org_car2x_veins_modules_mac_sigSentPacket
scalar PriorityV2VAttack.node[7].nic.mac1609_4 collisions:count 0
attr source org_car2x_veins_modules_mac_sigCollision
scalar PriorityV2VAttack.node[7].nic.mac1609_4 channelBusy:timeavg 0.064194713483144
attr source org_car2x_veins_modules_mac_sigChannelBusy
scalar PriorityV2VAttack.node[7].veinsmobility startTime 22
scalar PriorityV2VAttack.node[7].veinsmobility totalTime 178
scalar PriorityV2VAttack.node[7].veinsmobility stopTime 200
scalar PriorityV2VAttack.node[7].veinsmobility minSpeed 4.0430421609162
scalar PriorityV2VAttack.node[7].veinsmobility maxSpeed 13.996453029746
scalar PriorityV2VAttack.node[7].veinsmobility totalDistance 1692.035073804
scalar PriorityV2VAttack.node[7].veinsmobility totalCO2Emission 323.83808589382
scalar PriorityV2VAttack.node[8].appl generatedWSMs 1
scalar PriorityV2VAttack.node[8].appl receivedWSMs 47755
scalar PriorityV2VAttack.node[8].appl generatedBSMs 175
scalar PriorityV2VAttack.node[8].appl receivedBSMs 2819
scalar PriorityV2VAttack.node[8].appl generatedWSAs 0
scalar PriorityV2VAttack.node[8].appl receivedWSAs 0
scalar PriorityV2VAttack.node[8].nic.phy80211p busyTime 0.068031314285718
scalar PriorityV2VAttack.node[8].nic.mac1609_4 ReceivedUnicastPackets 0
scalar PriorityV2VAttack.node[8].nic.mac1609_4 ReceivedBroadcasts 50574
scalar PriorityV2VAttack.node[8].nic.mac1609_4 SentPackets 176
scalar PriorityV2VAttack.node[8].nic.mac1609_4 SentAcknowledgements 0
scalar PriorityV2VAttack.node[8].nic.mac1609_4 RetriesExceeded 0
scalar PriorityV2VAttack.node[8].nic.mac1609_4 SNIRLostPackets 2431
scalar PriorityV2VAttack.node[8].nic.mac1609_4 RXTXLostPackets 0
scalar PriorityV2VAttack.node[8].nic.mac1609_4 TotalLostPackets 2431
scalar PriorityV2VAttack.node[8].nic.mac1609_4 DroppedPacketsInMac 0
scalar PriorityV2VAttack.node[8].nic.mac1609_4 TooLittleTime 0
scalar PriorityV2VAttack.node[8].nic.mac1609_4 TimesIntoBackoff 187
scalar PriorityV2VAttack.node[8].nic.mac1609_4 SlotsBackoff 300
scalar PriorityV2VAttack.node[8].nic.mac1609_4 NumInternalContention 0
scalar PriorityV2VAttack.node[8].nic.mac1609_4 totalBusyTime 11.906488
scalar PriorityV2VAttack.node[8].nic.mac1609_4 NodeDownCount 0
scalar PriorityV2VAttack.node[8].nic.mac1609_4 retriesExceeded:count 0
attr source org_car2x_veins_modules_mac_sigRetriesExceeded
scalar PriorityV2VAttack.node[8].nic.mac1609_4 sentAcks:count 0
attr source org_car2x_veins_modules_mac_sigSentAck
scalar PriorityV2VAttack.node[8].nic.mac1609_4 sentPackets:count 176
attr source org_car2x_veins_modules_mac_sigSentPacket
scalar PriorityV2VAttack.node[8].nic.mac1609_4 collisions:count 0
attr source org_car2x_veins_modules_mac_sigCollision
scalar PriorityV2VAttack.node[8].nic.mac1609_4 channelBusy:timeavg 0.068037074285718
attr source org_car2x_veins_modules_mac_sigChannelBusy
scalar PriorityV2VAttack.node[8].veinsmobility startTime 25
scalar PriorityV2VAttack.node[8].veinsmobility totalTime 175
scalar PriorityV2VAttack.node[8].veinsmobility stopTime 200
scalar PriorityV2VAttack.node[8].veinsmobility minSpeed 4.0410625637338
scalar PriorityV2VAttack.node[8].veinsmobility maxSpeed 13.996461975116
scalar PriorityV2VAttack.node[8].veinsmobility totalDistance 1677.1592646272
scalar PriorityV2VAttack.node[8].veinsmobility totalCO2Emission 322.32668126659
scalar PriorityV2VAttack.node[9].appl generatedWSMs 1
scalar PriorityV2VAttack.node[9].appl receivedWSMs 49823
scalar PriorityV2VAttack.node[9].appl generatedBSMs 172
scalar PriorityV2VAttack.node[9].appl receivedBSMs 2792
scalar PriorityV2VAttack.node[9].appl generatedWSAs 0
scalar PriorityV2VAttack.node[9].appl receivedWSAs 0
scalar PriorityV2VAttack.node[9].nic.phy80211p busyTime 0.069210046511632
scalar PriorityV2VAttack.node[9].nic.mac1609_4 ReceivedUnicastPackets 0
scalar PriorityV2VAttack.node[9].nic.mac1609_4 ReceivedBroadcasts 52615
scalar PriorityV2VAttack.node[9].nic.mac1609_4 SentPackets 173
scalar PriorityV2VAttack.node[9].nic.mac1609_4 SentAcknowledgements 0
scalar PriorityV2VAttack.node[9].nic.mac1609_4 RetriesExceeded 0
scalar PriorityV2VAttack.node[9].nic.mac1609_4 SNIRLostPackets 377
scalar PriorityV2VAttack.node[9].nic.mac1609_4 RXTXLostPackets 0
scalar PriorityV2VAttack.node[9].nic.mac1609_4 TotalLostPackets 377
scalar PriorityV2VAttack.node[9].nic.mac1609_4 DroppedPacketsInMac 0
scalar PriorityV2VAttack.node[9].nic.mac1609_4 TooLittleTime 0
scalar PriorityV2VAttack.node[9].nic.mac1609_4 TimesIntoBackoff 185
scalar PriorityV2VAttack.node[9].nic.mac1609_4 SlotsBackoff 265
scalar PriorityV2VAttack.node[9].nic.mac1609_4 NumInternalContention 0
scalar PriorityV2VAttack.node[9].nic.mac1609_4 totalBusyTime 11.904173
scalar PriorityV2VAttack.node[9].nic.mac1609_4 NodeDownCount 0
scalar PriorityV2VAttack.node[9].nic.mac1609_4 retriesExceeded:count 0
attr source org_car2x_veins_modules_mac_sigRetriesExceeded
scalar PriorityV2VAttack.node[9].nic.mac1609_4 sentAcks:count 0
attr source org_car2x_veins_modules_mac_sigSentAck
scalar PriorityV2VAttack.node[9].nic.mac1609_4 sentPackets:count 173
attr source org_car2x_veins_modules_mac_sigSentPacket
scalar PriorityV2VAttack.node[9].nic.mac1609_4 collisions:count 0
attr source org_car2x_veins_modules_mac_sigCollision
scalar PriorityV2VAttack.node[9].nic.mac1609_4 channelBusy:timeavg 0.069210308139538
attr source org_car2x_veins_modules_mac_sigChannelBusy
scalar PriorityV2VAttack.node[9].veinsmobility startTime 28
scalar PriorityV2VAttack.node[9].veinsmobility totalTime 172
scalar PriorityV2VAttack.node[9].veinsmobility stopTime 200
scalar PriorityV2VAttack.node[9].veinsmobility minSpeed 4.0414518827764
scalar PriorityV2VAttack.node[9].veinsmobility maxSpeed 13.990338315354
scalar PriorityV2VAttack.node[9].veinsmobility totalDistance 1671.2916747587
scalar PriorityV2VAttack.node[9].veinsmobility totalCO2Emission 320.86906731594
scalar PriorityV2VAttack.node[10].appl generatedWSMs 1
scalar PriorityV2VAttack.node[10].appl receivedWSMs 49817
scalar PriorityV2VAttack.node[10].appl generatedBSMs 169
scalar PriorityV2VAttack.node[10].appl receivedBSMs 2757
scalar PriorityV2VAttack.node[10].appl generatedWSAs 0
scalar PriorityV2VAttack.node[10].appl receivedWSAs 0
scalar PriorityV2VAttack.node[10].nic.phy80211p busyTime 0.0704250887574
scalar PriorityV2VAttack.node[10].nic.mac1609_4 ReceivedUnicastPackets 0
scalar PriorityV2VAttack.node[10].nic.mac1609_4 ReceivedBroadcasts 52574
scalar PriorityV2VAttack.node[10].nic.mac1609_4 SentPackets 170
scalar PriorityV2VAttack.node[10].nic.mac1609_4 SentAcknowledgements 0
scalar PriorityV2VAttack.node[10].nic.mac1609_4 RetriesExceeded 0
scalar PriorityV2VAttack.node[10].nic.mac1609_4 SNIRLostPackets 396
scalar PriorityV2VAttack.node[10].nic.mac1609_4 RXTXLostPackets 1
scalar PriorityV2VAttack.node[10].nic.mac1609_4 TotalLostPackets 397
scalar PriorityV2VAttack.node[10].nic.mac1609_4 DroppedPacketsInMac 0
scalar PriorityV2VAttack.node[10].nic.mac1609_4 TooLittleTime 0
scalar PriorityV2VAttack.node[10].nic.mac1609_4 TimesIntoBackoff 182
scalar PriorityV2VAttack.node[10].nic.mac1609_4 SlotsBackoff 312
scalar PriorityV2VAttack.node[10].nic.mac1609_4 NumInternalContention 0
scalar PriorityV2VAttack.node[10].nic.mac1609_4 totalBusyTime 11.901026
scalar PriorityV2VAttack.node[10].nic.mac1609_4 NodeDownCount 0
scalar PriorityV2VAttack.node[10].nic.mac1609_4 retriesExceeded:count 0
attr source org_car2x_veins_modules_mac_sigRetriesExceeded
scalar PriorityV2VAttack.node[10].nic.mac1609_4 sentAcks:count 0
attr source org_car2x_veins_modules_mac_sigSentAck
scalar PriorityV2VAttack.node[10].nic.mac1609_4 sentPackets:count 170
attr source org_car2x_veins_modules_mac_sigSentPacket
scalar PriorityV2VAttack.node[10].nic.mac1609_4 collisions:count 0
attr source org_car2x_veins_modules_mac_sigCollision
scalar PriorityV2VAttack.node[10].nic.mac1609_4 channelBusy:timeavg 0.070420272189353
attr source org_car2x_veins_modules_mac_sigChannelBusy
scalar PriorityV2VAttack.node[10].veinsmobility startTime 31
scalar PriorityV2VAttack.node[10].veinsmobility totalTime 169
scalar PriorityV2VAttack.node[10].veinsmobility stopTime 200
scalar PriorityV2VAttack.node[10].veinsmobility minSpeed 4.0921991861071
scalar PriorityV2VAttack.node[10].veinsmobility maxSpeed 13.995584658093
scalar PriorityV2VAttack.node[10].veinsmobility totalDistance 1660.8712191985
scalar PriorityV2VAttack.node[10].veinsmobility totalCO2Emission 313.41417404079
scalar PriorityV2VAttack.node[11].appl generatedWSMs 1
scalar PriorityV2VAttack.node[11].appl receivedWSMs 49803
scalar PriorityV2VAttack.node[11].appl generatedBSMs 166
scalar PriorityV2VAttack.node[11].appl receivedBSMs 2703
scalar PriorityV2VAttack.node[11].appl generatedWSAs 0
scalar PriorityV2VAttack.node[11].appl receivedWSAs 0
scalar PriorityV2VAttack.node[11].nic.phy80211p busyTime 0.071683084337353
scalar PriorityV2VAttack.node[11].nic.mac1609_4 ReceivedUnicastPackets 0
scalar PriorityV2VAttack.node[11].nic.mac1609_4 ReceivedBroadcasts 52506
scalar PriorityV2VAttack.node[11].nic.mac1609_4 SentPackets 167
scalar PriorityV2VAttack.node[11].nic.mac1609_4 SentAcknowledgements 0
scalar PriorityV2VAttack.node[11].nic.mac1609_4 RetriesExceeded 0
scalar PriorityV2VAttack.node[11].nic.mac1609_4 SNIRLostPackets 438
scalar PriorityV2VAttack.node[11].nic.mac1609_4 RXTXLostPackets 0
scalar PriorityV2VAttack.node[11].nic.mac1609_4 TotalLostPackets 438
scalar PriorityV2VAttack.node[11].nic.mac1609_4 DroppedPacketsInMac 0
scalar PriorityV2VAttack.node[11].nic.mac1609_4 TooLittleTime 0
scalar PriorityV2VAttack.node[11].nic.mac1609_4 TimesIntoBackoff 182
scalar PriorityV2VAttack.node[11].nic.mac1609_4 SlotsBackoff 268
scalar PriorityV2VAttack.node[11].nic.mac1609_4 NumInternalContention 0
scalar PriorityV2VAttack.node[11].nic.mac1609_4 totalBusyTime 11.896143
scalar PriorityV2VAttack.node[11].nic.mac1609_4 NodeDownCount 0
scalar PriorityV2VAttack.node[11].nic.mac1609_4 retriesExceeded:count 0
attr source org_car2x_veins_modules_mac_sigRetriesExceeded
scalar PriorityV2VAttack.node[11].nic.mac1609_4 sentAcks:count 0
attr source org_car2x_veins_modules_mac_sigSentAck
scalar PriorityV2VAttack.node[11].nic.mac1609_4 sentPackets:count 167
attr source org_car2x_veins_modules_mac_sigSentPacket
scalar PriorityV2VAttack.node[11].nic.mac1609_4 collisions:count 0
attr source org_car2x_veins_modules_mac_sigCollision
scalar PriorityV2VAttack.node[11].nic.mac1609_4 channelBusy:timeavg 0.071663512048196
attr source org_car2x_veins_modules_mac_sigChannelBusy
scalar PriorityV2VAttack.node[11].veinsmobility startTime 34
scalar PriorityV2VAttack.node[11].veinsmobility totalTime 166
scalar PriorityV2VAttack.node[11].veinsmobility stopTime 200
scalar PriorityV2VAttack.node[11].veinsmobility minSpeed 4.0902178359286
scalar PriorityV2VAttack.node[11].veinsmobility maxSpeed 13.998126043116
scalar PriorityV2VAttack.node[11].veinsmobility totalDistance 1650.0344063084
scalar PriorityV2VAttack.node[11].veinsmobility totalCO2Emission 309.31724792624
scalar PriorityV2VAttack.node[12].appl generatedWSMs 1
scalar PriorityV2VAttack.node[12].appl receivedWSMs 20581
scalar PriorityV2VAttack.node[12].appl generatedBSMs 163
scalar PriorityV2VAttack.node[12].appl receivedBSMs 1791
scalar PriorityV2VAttack.node[12].appl generatedWSAs 0
scalar PriorityV2VAttack.node[12].appl receivedWSAs 0
scalar PriorityV2VAttack.node[12].nic.phy80211p busyTime 0.030790625766865
scalar PriorityV2VAttack.node[12].nic.mac1609_4 ReceivedUnicastPackets 0
scalar PriorityV2VAttack.node[12].nic.mac1609_4 ReceivedBroadcasts 22372
scalar PriorityV2VAttack.node[12].nic.mac1609_4 SentPackets 164
scalar PriorityV2VAttack.node[12].nic.mac1609_4 SentAcknowledgements 0
scalar PriorityV2VAttack.node[12].nic.mac1609_4 RetriesExceeded 0
scalar PriorityV2VAttack.node[12].nic.mac1609_4 SNIRLostPackets 311
scalar PriorityV2VAttack.node[12].nic.mac1609_4 RXTXLostPackets 0
scalar PriorityV2VAttack.node[12].nic.mac1609_4 TotalLostPackets 311
scalar PriorityV2VAttack.node[12].nic.mac1609_4 DroppedPacketsInMac 0
scalar PriorityV2VAttack.node[12].nic.mac1609_4 TooLittleTime 0
scalar PriorityV2VAttack.node[12].nic.mac1609_4 TimesIntoBackoff 169
scalar PriorityV2VAttack.node[12].nic.mac1609_4 SlotsBackoff 242
scalar PriorityV2VAttack.node[12].nic.mac1609_4 NumInternalContention 0
scalar PriorityV2VAttack.node[12].nic.mac1609_4 totalBusyTime 5.029444
scalar PriorityV2VAttack.node[12].nic.mac1609_4 NodeDownCount 0
scalar PriorityV2VAttack.node[12].nic.mac1609_4 retriesExceeded:count 0
attr source org_car2x_veins_modules_mac_sigRetriesExceeded
scalar PriorityV2VAttack.node[12].nic.mac1609_4 sentAcks:count 0
attr source org_car2x_veins_modules_mac_sigSentAck
scalar PriorityV2VAttack.node[12].nic.mac1609_4 sentPackets:count 164
attr source org_car2x_veins_modules_mac_sigSentPacket
scalar PriorityV2VAttack.node[12].nic.mac1609_4 collisions:count 0
attr source org_car2x_veins_modules_mac_sigCollision
scalar PriorityV2VAttack.node[12].nic.mac1609_4 channelBusy:timeavg 0.03085548466257
attr source org_car2x_veins_modules_mac_sigChannelBusy
scalar PriorityV2VAttack.node[12].veinsmobility startTime 37
scalar PriorityV2VAttack.node[12].veinsmobility totalTime 163
scalar PriorityV2VAttack.node[12].veinsmobility stopTime 200
scalar PriorityV2VAttack.node[12].veinsmobility minSpeed 3.8721652445728
scalar PriorityV2VAttack.node[12].veinsmobility maxSpeed 13.974055984516
scalar PriorityV2VAttack.node[12].veinsmobility totalDistance 1775.889298372
scalar PriorityV2VAttack.node[12].veinsmobility totalCO2Emission 362.39765337446
scalar PriorityV2VAttack.node[13].appl generatedWSMs 1
scalar PriorityV2VAttack.node[13].appl receivedWSMs 17558
scalar PriorityV2VAttack.node[13].appl generatedBSMs 160
scalar PriorityV2VAttack.node[13].appl receivedBSMs 1440
scalar PriorityV2VAttack.node[13].appl generatedWSAs 0
scalar PriorityV2VAttack.node[13].appl receivedWSAs 0
scalar PriorityV2VAttack.node[13].nic.phy80211p busyTime 0.028157149999999
scalar PriorityV2VAttack.node[13].nic.mac1609_4 ReceivedUnicastPackets 0
scalar PriorityV2VAttack.node[13].nic.mac1609_4 ReceivedBroadcasts 18998
scalar PriorityV2VAttack.node[13].nic.mac1609_4 SentPackets 161
scalar PriorityV2VAttack.node[13].nic.mac1609_4 SentAcknowledgements 0
scalar PriorityV2VAttack.node[13].nic.mac1609_4 RetriesExceeded 0
scalar PriorityV2VAttack.node[13].nic.mac1609_4 SNIRLostPackets 1293
scalar PriorityV2VAttack.node[13].nic.mac1609_4 RXTXLostPackets 1
scalar PriorityV2VAttack.node[13].nic.mac1609_4 TotalLostPackets 1294
scalar PriorityV2VAttack.node[13].nic.mac1609_4 DroppedPacketsInMac 0
scalar PriorityV2VAttack.node[13].nic.mac1609_4 TooLittleTime 0
scalar PriorityV2VAttack.node[13].nic.mac1609_4 TimesIntoBackoff 166
scalar PriorityV2VAttack.node[13].nic.mac1609_4 SlotsBackoff 257
scalar PriorityV2VAttack.node[13].nic.mac1609_4 NumInternalContention 0
scalar PriorityV2VAttack.node[13].nic.mac1609_4 totalBusyTime 4.516305
scalar PriorityV2VAttack.node[13].nic.mac1609_4 NodeDownCount 0
scalar PriorityV2VAttack.node[13].nic.mac1609_4 retriesExceeded:count 0
attr source org_car2x_veins_modules_mac_sigRetriesExceeded
scalar PriorityV2VAttack.node[13].nic.mac1609_4 sentAcks:count 0
attr source org_car2x_veins_modules_mac_sigSentAck
scalar PriorityV2VAttack.node[13].nic.mac1609_4 sentPackets:count 161
attr source org_car2x_veins_modules_mac_sigSentPacket
scalar PriorityV2VAttack.node[13].nic.mac1609_4 collisions:count 0
attr source org_car2x_veins_modules_mac_sigCollision
scalar PriorityV2VAttack.node[13].nic.mac1609_4 channelBusy:timeavg 0.028226906249999
attr source org_car2x_veins_modules_mac_sigChannelBusy
scalar PriorityV2VAttack.node[13].veinsmobility startTime 40
scalar PriorityV2VAttack.node[13].veinsmobility totalTime 160
scalar PriorityV2VAttack.node[13].veinsmobility stopTime 200
scalar PriorityV2VAttack.node[13].veinsmobility minSpeed 3.8893497726901
scalar PriorityV2VAttack.node[13].veinsmobility maxSpeed 13.998275555454
scalar PriorityV2VAttack.node[13].veinsmobility totalDistance 1782.9099833986
scalar PriorityV2VAttack.node[13].veinsmobility totalCO2Emission 385.80329040869
scalar PriorityV2VAttack.node[14].appl generatedWSMs 1
scalar PriorityV2VAttack.node[14].appl receivedWSMs 20447
scalar PriorityV2VAttack.node[14].appl generatedBSMs 157
scalar PriorityV2VAttack.node[14].appl receivedBSMs 1831
scalar PriorityV2VAttack.node[14].appl generatedWSAs 0
scalar PriorityV2VAttack.node[14].appl receivedWSAs 0
scalar PriorityV2VAttack.node[14].nic.phy80211p busyTime 0.032017121019102
scalar PriorityV2VAttack.node[14].nic.mac1609_4 ReceivedUnicastPackets 0
scalar PriorityV2VAttack.node[14].nic.mac1609_4 ReceivedBroadcasts 22278
scalar PriorityV2VAttack.node[14].nic.mac1609_4 SentPackets 158
scalar PriorityV2VAttack.node[14].nic.mac1609_4 SentAcknowledgements 0
scalar PriorityV2VAttack.node[14].nic.mac1609_4 RetriesExceeded 0
scalar PriorityV2VAttack.node[14].nic.mac1609_4 SNIRLostPackets 458
scalar PriorityV2VAttack.node[14].nic.mac1609_4 RXTXLostPackets 0
scalar PriorityV2VAttack.node[14].nic.mac1609_4 TotalLostPackets 458
scalar PriorityV2VAttack.node[14].nic.mac1609_4 DroppedPacketsInMac 0
scalar PriorityV2VAttack.node[14].nic.mac1609_4 TooLittleTime 0
scalar PriorityV2VAttack.node[14].nic.mac1609_4 TimesIntoBackoff 164
scalar PriorityV2VAttack.node[14].nic.mac1609_4 SlotsBackoff 245
scalar PriorityV2VAttack.node[14].nic.mac1609_4 NumInternalContention 0
scalar PriorityV2VAttack.node[14].nic.mac1609_4 totalBusyTime 5.035830085227
scalar PriorityV2VAttack.node[14].nic.mac1609_4 NodeDownCount 0
scalar PriorityV2VAttack.node[14].nic.mac1609_4 retriesExceeded:count 0
attr source org_car2x_veins_modules_mac_sigRetriesExceeded
scalar PriorityV2VAttack.node[14].nic.mac1609_4 sentAcks:count 0
attr source org_car2x_veins_modules_mac_sigSentAck
scalar PriorityV2VAttack.node[14].nic.mac1609_4 sentPackets:count 158
attr source org_car2x_veins_modules_mac_sigSentPacket
scalar PriorityV2VAttack.node[14].nic.mac1609_4 collisions:count 0
attr source org_car2x_veins_modules_mac_sigCollision
scalar PriorityV2VAttack.node[14].nic.mac1609_4 channelBusy:timeavg 0.032075350861312
attr source org_car2x_veins_modules_mac_sigChannelBusy
scalar PriorityV2VAttack.node[14].veinsmobility startTime 43
scalar PriorityV2VAttack.node[14].veinsmobility totalTime 157
scalar PriorityV2VAttack.node[14].veinsmobility stopTime 200
scalar PriorityV2VAttack.node[14].veinsmobility minSpeed 0
scalar PriorityV2VAttack.node[14].veinsmobility maxSpeed 13.999317840978
scalar PriorityV2VAttack.node[14].veinsmobility totalDistance 1658.2676131381
scalar PriorityV2VAttack.node[14].veinsmobility totalCO2Emission 363.62754227819
scalar PriorityV2VAttack.node[15].appl generatedWSMs 1
scalar PriorityV2VAttack.node[15].appl receivedWSMs 10367
scalar PriorityV2VAttack.node[15].appl generatedBSMs 154
scalar PriorityV2VAttack.node[15].appl receivedBSMs 1843
scalar PriorityV2VAttack.node[15].appl generatedWSAs 0
scalar PriorityV2VAttack.node[15].appl receivedWSAs 0
scalar PriorityV2VAttack.node[15].nic.phy80211p busyTime 0.016986805194805
scalar PriorityV2VAttack.node[15].nic.mac1609_4 ReceivedUnicastPackets 0
scalar PriorityV2VAttack.node[15].nic.mac1609_4 ReceivedBroadcasts 12210
scalar PriorityV2VAttack.node[15].nic.mac1609_4 SentPackets 155
scalar PriorityV2VAttack.node[15].nic.mac1609_4 SentAcknowledgements 0
scalar PriorityV2VAttack.node[15].nic.mac1609_4 RetriesExceeded 0
scalar PriorityV2VAttack.node[15].nic.mac1609_4 SNIRLostPackets 130
scalar PriorityV2VAttack.node[15].nic.mac1609_4 RXTXLostPackets 0
scalar PriorityV2VAttack.node[15].nic.mac1609_4 TotalLostPackets 130
scalar PriorityV2VAttack.node[15].nic.mac1609_4 DroppedPacketsInMac 0
scalar PriorityV2VAttack.node[15].nic.mac1609_4 TooLittleTime 0
scalar PriorityV2VAttack.node[15].nic.mac1609_4 TimesIntoBackoff 158
scalar PriorityV2VAttack.node[15].nic.mac1609_4 SlotsBackoff 225
scalar PriorityV2VAttack.node[15].nic.mac1609_4 NumInternalContention 0
scalar PriorityV2VAttack.node[15].nic.mac1609_4 totalBusyTime 2.629211
scalar PriorityV2VAttack.node[15].nic.mac1609_4 NodeDownCount 0
scalar PriorityV2VAttack.node[15].nic.mac1609_4 retriesExceeded:count 0
attr source org_car2x_veins_modules_mac_sigRetriesExceeded
scalar PriorityV2VAttack.node[15].nic.mac1609_4 sentAcks:count 0
attr source org_car2x_veins_modules_mac_sigSentAck
scalar PriorityV2VAttack.node[15].nic.mac1609_4 sentPackets:count 155
attr source org_car2x_veins_modules_mac_sigSentPacket
scalar PriorityV2VAttack.node[15].nic.mac1609_4 collisions:count 0
attr source org_car2x_veins_modules_mac_sigCollision
scalar PriorityV2VAttack.node[15].nic.mac1609_4 channelBusy:timeavg 0.017072798701298
attr source org_car2x_veins_modules_mac_sigChannelBusy
scalar PriorityV2VAttack.node[15].veinsmobility startTime 46
scalar PriorityV2VAttack.node[15].veinsmobility totalTime 154
scalar PriorityV2VAttack.node[15].veinsmobility stopTime 200
scalar PriorityV2VAttack.node[15].veinsmobility minSpeed 2.1298658241565
scalar PriorityV2VAttack.node[15].veinsmobility maxSpeed 13.994507228746
scalar PriorityV2VAttack.node[15].veinsmobility totalDistance 1631.2665452796
scalar PriorityV2VAttack.node[15].veinsmobility totalCO2Emission 352.88838843021
scalar PriorityV2VAttack.node[16].appl generatedWSMs 1
scalar PriorityV2VAttack.node[16].appl receivedWSMs 10
scalar PriorityV2VAttack.node[16].appl generatedBSMs 151
scalar PriorityV2VAttack.node[16].appl receivedBSMs 2212
scalar PriorityV2VAttack.node[16].appl generatedWSAs 0
scalar PriorityV2VAttack.node[16].appl receivedWSAs 0
scalar PriorityV2VAttack.node[16].nic.phy80211p busyTime 0.0016118675496688
scalar PriorityV2VAttack.node[16].nic.mac1609_4 ReceivedUnicastPackets 0
scalar PriorityV2VAttack.node[16].nic.mac1609_4 ReceivedBroadcasts 2222
scalar PriorityV2VAttack.node[16].nic.mac1609_4 SentPackets 152
scalar PriorityV2VAttack.node[16].nic.mac1609_4 SentAcknowledgements 0
scalar PriorityV2VAttack.node[16].nic.mac1609_4 RetriesExceeded 0
scalar PriorityV2VAttack.node[16].nic.mac1609_4 SNIRLostPackets 106
scalar PriorityV2VAttack.node[16].nic.mac1609_4 RXTXLostPackets 0
scalar PriorityV2VAttack.node[16].nic.mac1609_4 TotalLostPackets 106
scalar PriorityV2VAttack.node[16].nic.mac1609_4 DroppedPacketsInMac 0
scalar PriorityV2VAttack.node[16].nic.mac1609_4 TooLittleTime 0
scalar PriorityV2VAttack.node[16].nic.mac1609_4 TimesIntoBackoff 152
scalar PriorityV2VAttack.node[16].nic.mac1609_4 SlotsBackoff 237
scalar PriorityV2VAttack.node[16].nic.mac1609_4 NumInternalContention 0
scalar PriorityV2VAttack.node[16].nic.mac1609_4 totalBusyTime 0.25948
scalar PriorityV2VAttack.node[16].nic.mac1609_4 NodeDownCount 0
scalar PriorityV2VAttack.node[16].nic.mac1609_4 retriesExceeded:count 0
attr source org_car2x_veins_modules_mac_sigRetriesExceeded
scalar PriorityV2VAttack.node[16].nic.mac1609_4 sentAcks:count 0
attr source org_car2x_veins_modules_mac_sigSentAck
scalar PriorityV2VAttack.node[16].nic.mac1609_4 sentPackets:count 152
attr source org_car2x_veins_modules_mac_sigSentPacket
scalar PriorityV2VAttack.node[16].nic.mac1609_4 collisions:count 0
attr source org_car2x_veins_modules_mac_sigCollision
scalar PriorityV2VAttack.node[16].nic.mac1609_4 channelBusy:timeavg 0.0017184105960265
attr source org_car2x_veins_modules_mac_sigChannelBusy
scalar PriorityV2VAttack.node[16].veinsmobility startTime 49
scalar PriorityV2VAttack.node[16].veinsmobility totalTime 151
scalar PriorityV2VAttack.node[16].veinsmobility stopTime 200
scalar PriorityV2VAttack.node[16].veinsmobility minSpeed 3.9289234951894
scalar PriorityV2VAttack.node[16].veinsmobility maxSpeed 12.063327381323
scalar PriorityV2VAttack.node[16].veinsmobility totalDistance 1160.0922238939
scalar PriorityV2VAttack.node[16].veinsmobility totalCO2Emission 261.04262757272
scalar PriorityV2VAttack.node[17].appl generatedWSMs 1
scalar PriorityV2VAttack.node[17].appl receivedWSMs 11
scalar PriorityV2VAttack.node[17].appl generatedBSMs 148
scalar PriorityV2VAttack.node[17].appl receivedBSMs 2204
scalar PriorityV2VAttack.node[17].appl generatedWSAs 0
scalar PriorityV2VAttack.node[17].appl receivedWSAs 0
scalar PriorityV2VAttack.node[17].nic.phy80211p busyTime 0.0016541621621621
scalar PriorityV2VAttack.node[17].nic.mac1609_4 ReceivedUnicastPackets 0
scalar PriorityV2VAttack.node[17].nic.mac1609_4 ReceivedBroadcasts 2215
scalar PriorityV2VAttack.node[17].nic.mac1609_4 SentPackets 149
scalar PriorityV2VAttack.node[17].nic.mac1609_4 SentAcknowledgements 0
scalar PriorityV2VAttack.node[17].nic.mac1609_4 RetriesExceeded 0
scalar PriorityV2VAttack.node[17].nic.mac1609_4 SNIRLostPackets 123
scalar PriorityV2VAttack.node[17].nic.mac1609_4 RXTXLostPackets 0
scalar PriorityV2VAttack.node[17].nic.mac1609_4 TotalLostPackets 123
scalar PriorityV2VAttack.node[17].nic.mac1609_4 DroppedPacketsInMac 0
scalar PriorityV2VAttack.node[17].nic.mac1609_4 TooLittleTime 0
scalar PriorityV2VAttack.node[17].nic.mac1609_4 TimesIntoBackoff 149
scalar PriorityV2VAttack.node[17].nic.mac1609_4 SlotsBackoff 230
scalar PriorityV2VAttack.node[17].nic.mac1609_4 NumInternalContention 0
scalar PriorityV2VAttack.node[17].nic.mac1609_4 totalBusyTime 0.260589
scalar PriorityV2VAttack.node[17].nic.mac1609_4 NodeDownCount 0
scalar PriorityV2VAttack.node[17].nic.mac1609_4 retriesExceeded:count 0
attr source org_car2x_veins_modules_mac_sigRetriesExceeded
scalar PriorityV2VAttack.node[17].nic.mac1609_4 sentAcks:count 0
attr source org_car2x_veins_modules_mac_sigSentAck
scalar PriorityV2VAttack.node[17].nic.mac1609_4 sentPackets:count 149
attr source org_car2x_veins_modules_mac_sigSentPacket
scalar PriorityV2VAttack.node[17].nic.mac1609_4 collisions:count 0
attr source org_car2x_veins_modules_mac_sigCollision
scalar PriorityV2VAttack.node[17].nic.mac1609_4 channelBusy:timeavg 0.0017607364864865
attr source org_car2x_veins_modules_mac_sigChannelBusy
scalar PriorityV2VAttack.node[17].veinsmobility startTime 52
scalar PriorityV2VAttack.node[17].veinsmobility totalTime 148
scalar PriorityV2VAttack.node[17].veinsmobility stopTime 200
scalar PriorityV2VAttack.node[17].veinsmobility minSpeed 4.1654516040827
scalar PriorityV2VAttack.node[17].veinsmobility maxSpeed 12.824866217841
scalar PriorityV2VAttack.node[17].veinsmobility totalDistance 1144.4690167129
scalar PriorityV2VAttack.node[17].veinsmobility totalCO2Emission 257.54337215323
scalar PriorityV2VAttack.node[18].appl generatedWSMs 1
scalar PriorityV2VAttack.node[18].appl receivedWSMs 14
scalar PriorityV2VAttack.node[18].appl generatedBSMs 145
scalar PriorityV2VAttack.node[18].appl receivedBSMs 2211
scalar PriorityV2VAttack.node[18].appl generatedWSAs 0
scalar PriorityV2VAttack.node[18].appl receivedWSAs 0
scalar PriorityV2VAttack.node[18].nic.phy80211p busyTime 0.0049859862068965
scalar PriorityV2VAttack.node[18].nic.mac1609_4 ReceivedUnicastPackets 0
scalar PriorityV2VAttack.node[18].nic.mac1609_4 ReceivedBroadcasts 2225
scalar PriorityV2VAttack.node[18].nic.mac1609_4 SentPackets 146
scalar PriorityV2VAttack.node[18].nic.mac1609_4 SentAcknowledgements 0
scalar PriorityV2VAttack.node[18].nic.mac1609_4 RetriesExceeded 0
scalar PriorityV2VAttack.node[18].nic.mac1609_4 SNIRLostPackets 2174
scalar PriorityV2VAttack.node[18].nic.mac1609_4 RXTXLostPackets 0
scalar PriorityV2VAttack.node[18].nic.mac1609_4 TotalLostPackets 2174
scalar PriorityV2VAttack.node[18].nic.mac1609_4 DroppedPacketsInMac 0
scalar PriorityV2VAttack.node[18].nic.mac1609_4 TooLittleTime 0
scalar PriorityV2VAttack.node[18].nic.mac1609_4 TimesIntoBackoff 146
scalar PriorityV2VAttack.node[18].nic.mac1609_4 SlotsBackoff 258
scalar PriorityV2VAttack.node[18].nic.mac1609_4 NumInternalContention 0
scalar PriorityV2VAttack.node[18].nic.mac1609_4 totalBusyTime 0.737986
scalar PriorityV2VAttack.node[18].nic.mac1609_4 NodeDownCount 0
scalar PriorityV2VAttack.node[18].nic.mac1609_4 retriesExceeded:count 0
attr source org_car2x_veins_modules_mac_sigRetriesExceeded
scalar PriorityV2VAttack.node[18].nic.mac1609_4 sentAcks:count 0
attr source org_car2x_veins_modules_mac_sigSentAck
scalar PriorityV2VAttack.node[18].nic.mac1609_4 sentPackets:count 146
attr source org_car2x_veins_modules_mac_sigSentPacket
scalar PriorityV2VAttack.node[18].nic.mac1609_4 collisions:count 0
attr source org_car2x_veins_modules_mac_sigCollision
scalar PriorityV2VAttack.node[18].nic.mac1609_4 channelBusy:timeavg 0.0050895586206897
attr source org_car2x_veins_modules_mac_sigChannelBusy
scalar PriorityV2VAttack.node[18].veinsmobility startTime 55
scalar PriorityV2VAttack.node[18].veinsmobility totalTime 145
scalar PriorityV2VAttack.node[18].veinsmobility stopTime 200
scalar PriorityV2VAttack.node[18].veinsmobility minSpeed 4.0059353912065
scalar PriorityV2VAttack.node[18].veinsmobility maxSpeed 13.491267315593
scalar PriorityV2VAttack.node[18].veinsmobility totalDistance 1129.8419679487
scalar PriorityV2VAttack.node[18].veinsmobility totalCO2Emission 255.72665421292
scalar PriorityV2VAttack.node[20].appl generatedWSMs 1
scalar PriorityV2VAttack.node[20].appl receivedWSMs 14
scalar PriorityV2VAttack.node[20].appl generatedBSMs 142
scalar PriorityV2VAttack.node[20].appl receivedBSMs 2212
scalar PriorityV2VAttack.node[20].appl generatedWSAs 0
scalar PriorityV2VAttack.node[20].appl receivedWSAs 0
scalar PriorityV2VAttack.node[20].nic.phy80211p busyTime 0.011868338028171
scalar PriorityV2VAttack.node[20].nic.mac1609_4 ReceivedUnicastPackets 0
scalar PriorityV2VAttack.node[20].nic.mac1609_4 ReceivedBroadcasts 2226
scalar PriorityV2VAttack.node[20].nic.mac1609_4 SentPackets 143
scalar PriorityV2VAttack.node[20].nic.mac1609_4 SentAcknowledgements 0
scalar PriorityV2VAttack.node[20].nic.mac1609_4 RetriesExceeded 0
scalar PriorityV2VAttack.node[20].nic.mac1609_4 SNIRLostPackets 6321
scalar PriorityV2VAttack.node[20].nic.mac1609_4 RXTXLostPackets 0
scalar PriorityV2VAttack.node[20].nic.mac1609_4 TotalLostPackets 6321
scalar PriorityV2VAttack.node[20].nic.mac1609_4 DroppedPacketsInMac 0
scalar PriorityV2VAttack.node[20].nic.mac1609_4 TooLittleTime 0
scalar PriorityV2VAttack.node[20].nic.mac1609_4 TimesIntoBackoff 146
scalar PriorityV2VAttack.node[20].nic.mac1609_4 SlotsBackoff 235
scalar PriorityV2VAttack.node[20].nic.mac1609_4 NumInternalContention 0
scalar PriorityV2VAttack.node[20].nic.mac1609_4 totalBusyTime 1.698999
scalar PriorityV2VAttack.node[20].nic.mac1609_4 NodeDownCount 0
scalar PriorityV2VAttack.node[20].nic.mac1609_4 retriesExceeded:count 0
attr source org_car2x_veins_modules_mac_sigRetriesExceeded
scalar PriorityV2VAttack.node[20].nic.mac1609_4 sentAcks:count 0
attr source org_car2x_veins_modules_mac_sigSentAck
scalar PriorityV2VAttack.node[20].nic.mac1609_4 sentPackets:count 143
attr source org_car2x_veins_modules_mac_sigSentPacket
scalar PriorityV2VAttack.node[20].nic.mac1609_4 collisions:count 0
attr source org_car2x_veins_modules_mac_sigCollision
scalar PriorityV2VAttack.node[20].nic.mac1609_4 channelBusy:timeavg 0.011964781690143
attr source org_car2x_veins_modules_mac_sigChannelBusy
scalar PriorityV2VAttack.node[20].veinsmobility startTime 58
scalar PriorityV2VAttack.node[20].veinsmobility totalTime 142
scalar PriorityV2VAttack.node[20].veinsmobility stopTime 200
scalar PriorityV2VAttack.node[20].veinsmobility minSpeed 4.1077073881151
scalar PriorityV2VAttack.node[20].veinsmobility maxSpeed 13.992575319903
scalar PriorityV2VAttack.node[20].veinsmobility totalDistance 1113.2984801237
scalar PriorityV2VAttack.node[20].veinsmobility totalCO2Emission 256.65022917249
scalar PriorityV2VAttack.node[21].appl generatedWSMs 1
scalar PriorityV2VAttack.node[21].appl receivedWSMs 11
scalar PriorityV2VAttack.node[21].appl generatedBSMs 139
scalar PriorityV2VAttack.node[21].appl receivedBSMs 2189
scalar PriorityV2VAttack.node[21].appl generatedWSAs 0
scalar PriorityV2VAttack.node[21].appl receivedWSAs 0
scalar PriorityV2VAttack.node[21].nic.phy80211p busyTime 0.012153899280578
scalar PriorityV2VAttack.node[21].nic.mac1609_4 ReceivedUnicastPackets 0
scalar PriorityV2VAttack.node[21].nic.mac1609_4 ReceivedBroadcasts 2200
scalar PriorityV2VAttack.node[21].nic.mac1609_4 SentPackets 140
scalar PriorityV2VAttack.node[21].nic.mac1609_4 SentAcknowledgements 0
scalar PriorityV2VAttack.node[21].nic.mac1609_4 RetriesExceeded 0
scalar PriorityV2VAttack.node[21].nic.mac1609_4 SNIRLostPackets 6358
scalar PriorityV2VAttack.node[21].nic.mac1609_4 RXTXLostPackets 0
scalar PriorityV2VAttack.node[21].nic.mac1609_4 TotalLostPackets 6358
scalar PriorityV2VAttack.node[21].nic.mac1609_4 DroppedPacketsInMac 0
scalar PriorityV2VAttack.node[21].nic.mac1609_4 TooLittleTime 0
scalar PriorityV2VAttack.node[21].nic.mac1609_4 TimesIntoBackoff 142
scalar PriorityV2VAttack.node[21].nic.mac1609_4 SlotsBackoff 213
scalar PriorityV2VAttack.node[21].nic.mac1609_4 NumInternalContention 0
scalar PriorityV2VAttack.node[21].nic.mac1609_4 totalBusyTime 1.701484
scalar PriorityV2VAttack.node[21].nic.mac1609_4 NodeDownCount 0
scalar PriorityV2VAttack.node[21].nic.mac1609_4 retriesExceeded:count 0
attr source org_car2x_veins_modules_mac_sigRetriesExceeded
scalar PriorityV2VAttack.node[21].nic.mac1609_4 sentAcks:count 0
attr source org_car2x_veins_modules_mac_sigSentAck
scalar PriorityV2VAttack.node[21].nic.mac1609_4 sentPackets:count 140
attr source org_car2x_veins_modules_mac_sigSentPacket
scalar PriorityV2VAttack.node[21].nic.mac1609_4 collisions:count 0
attr source org_car2x_veins_modules_mac_sigCollision
scalar PriorityV2VAttack.node[21].nic.mac1609_4 channelBusy:timeavg 0.012240892086333
attr source org_car2x_veins_modules_mac_sigChannelBusy
scalar PriorityV2VAttack.node[21].veinsmobility startTime 61
scalar PriorityV2VAttack.node[21].veinsmobility totalTime 139
scalar PriorityV2VAttack.node[21].veinsmobility stopTime 200
scalar PriorityV2VAttack.node[21].veinsmobility minSpeed 3.9168212624827
scalar PriorityV2VAttack.node[21].veinsmobility maxSpeed 13.974547270818
scalar PriorityV2VAttack.node[21].veinsmobility totalDistance 1098.2479446717
scalar PriorityV2VAttack.node[21].veinsmobility totalCO2Emission 253.51976159879
scalar PriorityV2VAttack.node[22].appl generatedWSMs 0
scalar PriorityV2VAttack.node[22].appl receivedWSMs 0
scalar PriorityV2VAttack.node[22].appl generatedBSMs 136
scalar PriorityV2VAttack.node[22].appl receivedBSMs 2004
scalar PriorityV2VAttack.node[22].appl generatedWSAs 0
scalar PriorityV2VAttack.node[22].appl receivedWSAs 0
scalar PriorityV2VAttack.node[22].nic.phy80211p busyTime 0.0054464117647059
scalar PriorityV2VAttack.node[22].nic.mac1609_4 ReceivedUnicastPackets 0
scalar PriorityV2VAttack.node[22].nic.mac1609_4 ReceivedBroadcasts 2004
scalar PriorityV2VAttack.node[22].nic.mac1609_4 SentPackets 136
scalar PriorityV2VAttack.node[22].nic.mac1609_4 SentAcknowledgements 0
scalar PriorityV2VAttack.node[22].nic.mac1609_4 RetriesExceeded 0
scalar PriorityV2VAttack.node[22].nic.mac1609_4 SNIRLostPackets 2557
scalar PriorityV2VAttack.node[22].nic.mac1609_4 RXTXLostPackets 0
scalar PriorityV2VAttack.node[22].nic.mac1609_4 TotalLostPackets 2557
scalar PriorityV2VAttack.node[22].nic.mac1609_4 DroppedPacketsInMac 0
scalar PriorityV2VAttack.node[22].nic.mac1609_4 TooLittleTime 0
scalar PriorityV2VAttack.node[22].nic.mac1609_4 TimesIntoBackoff 136
scalar PriorityV2VAttack.node[22].nic.mac1609_4 SlotsBackoff 202
scalar PriorityV2VAttack.node[22].nic.mac1609_4 NumInternalContention 0
scalar PriorityV2VAttack.node[22].nic.mac1609_4 totalBusyTime 0.754595449885
scalar PriorityV2VAttack.node[22].nic.mac1609_4 NodeDownCount 0
scalar PriorityV2VAttack.node[22].nic.mac1609_4 retriesExceeded:count 0
attr source org_car2x_veins_modules_mac_sigRetriesExceeded
scalar PriorityV2VAttack.node[22].nic.mac1609_4 sentAcks:count 0
attr source org_car2x_veins_modules_mac_sigSentAck
scalar PriorityV2VAttack.node[22].nic.mac1609_4 sentPackets:count 136
attr source org_car2x_veins_modules_mac_sigSentPacket
scalar PriorityV2VAttack.node[22].nic.mac1609_4 collisions:count 0
attr source org_car2x_veins_modules_mac_sigCollision
scalar PriorityV2VAttack.node[22].nic.mac1609_4 channelBusy:timeavg 0.0055484959550368
attr source org_car2x_veins_modules_mac_sigChannelBusy
scalar PriorityV2VAttack.node[22].veinsmobility startTime 64
scalar PriorityV2VAttack.node[22].veinsmobility totalTime 136
scalar PriorityV2VAttack.node[22].veinsmobility stopTime 200
scalar PriorityV2VAttack.node[22].veinsmobility minSpeed 4.0312268259559
scalar PriorityV2VAttack.node[22].veinsmobility maxSpeed 13.999499795509
scalar PriorityV2VAttack.node[22].veinsmobility totalDistance 1805.5283282177
scalar PriorityV2VAttack.node[22].veinsmobility totalCO2Emission 327.18201563337
scalar PriorityV2VAttack.node[23].appl generatedWSMs 0
scalar PriorityV2VAttack.node[23].appl receivedWSMs 0
scalar PriorityV2VAttack.node[23].appl generatedBSMs 133
scalar PriorityV2VAttack.node[23].appl receivedBSMs 2238
scalar PriorityV2VAttack.node[23].appl generatedWSAs 0
scalar PriorityV2VAttack.node[23].appl receivedWSAs 0
scalar PriorityV2VAttack.node[23].nic.phy80211p busyTime 0.0020330827067669
scalar PriorityV2VAttack.node[23].nic.mac1609_4 ReceivedUnicastPackets 0
scalar PriorityV2VAttack.node[23].nic.mac1609_4 ReceivedBroadcasts 2238
scalar PriorityV2VAttack.node[23].nic.mac1609_4 SentPackets 133
scalar PriorityV2VAttack.node[23].nic.mac1609_4 SentAcknowledgements 0
scalar PriorityV2VAttack.node[23].nic.mac1609_4 RetriesExceeded 0
scalar PriorityV2VAttack.node[23].nic.mac1609_4 SNIRLostPackets 362
scalar PriorityV2VAttack.node[23].nic.mac1609_4 RXTXLostPackets 0
scalar PriorityV2VAttack.node[23].nic.mac1609_4 TotalLostPackets 362
scalar PriorityV2VAttack.node[23].nic.mac1609_4 DroppedPacketsInMac 0
scalar PriorityV2VAttack.node[23].nic.mac1609_4 TooLittleTime 0
scalar PriorityV2VAttack.node[23].nic.mac1609_4 TimesIntoBackoff 133
scalar PriorityV2VAttack.node[23].nic.mac1609_4 SlotsBackoff 205
scalar PriorityV2VAttack.node[23].nic.mac1609_4 NumInternalContention 0
scalar PriorityV2VAttack.node[23].nic.mac1609_4 totalBusyTime 0.284365
scalar PriorityV2VAttack.node[23].nic.mac1609_4 NodeDownCount 0
scalar PriorityV2VAttack.node[23].nic.mac1609_4 retriesExceeded:count 0
attr source org_car2x_veins_modules_mac_sigRetriesExceeded
scalar PriorityV2VAttack.node[23].nic.mac1609_4 sentAcks:count 0
attr source org_car2x_veins_modules_mac_sigSentAck
scalar PriorityV2VAttack.node[23].nic.mac1609_4 sentPackets:count 133
attr source org_car2x_veins_modules_mac_sigSentPacket
scalar PriorityV2VAttack.node[23].nic.mac1609_4 collisions:count 0
attr source org_car2x_veins_modules_mac_sigCollision
scalar PriorityV2VAttack.node[23].nic.mac1609_4 channelBusy:timeavg 0.0021380827067669
attr source org_car2x_veins_modules_mac_sigChannelBusy
scalar PriorityV2VAttack.node[23].veinsmobility startTime 67
scalar PriorityV2VAttack.node[23].veinsmobility totalTime 133
scalar PriorityV2VAttack.node[23].veinsmobility stopTime 200
scalar PriorityV2VAttack.node[23].veinsmobility minSpeed 3.9833337411538
scalar PriorityV2VAttack.node[23].veinsmobility maxSpeed 13.997477567426
scalar PriorityV2VAttack.node[23].veinsmobility totalDistance 1668.6704782727
scalar PriorityV2VAttack.node[23].veinsmobility totalCO2Emission 298.6783729727
scalar PriorityV2VAttack.node[24].appl generatedWSMs 0
scalar PriorityV2VAttack.node[24].appl receivedWSMs 0
scalar PriorityV2VAttack.node[24].appl generatedBSMs 130
scalar PriorityV2VAttack.node[24].appl receivedBSMs 2245
scalar PriorityV2VAttack.node[24].appl generatedWSAs 0
scalar PriorityV2VAttack.node[24].appl receivedWSAs 0
scalar PriorityV2VAttack.node[24].nic.phy80211p busyTime 0.0020528
scalar PriorityV2VAttack.node[24].nic.mac1609_4 ReceivedUnicastPackets 0
scalar PriorityV2VAttack.node[24].nic.mac1609_4 ReceivedBroadcasts 2245
scalar PriorityV2VAttack.node[24].nic.mac1609_4 SentPackets 130
scalar PriorityV2VAttack.node[24].nic.mac1609_4 SentAcknowledgements 0
scalar PriorityV2VAttack.node[24].nic.mac1609_4 RetriesExceeded 0
scalar PriorityV2VAttack.node[24].nic.mac1609_4 SNIRLostPackets 321
scalar PriorityV2VAttack.node[24].nic.mac1609_4 RXTXLostPackets 0
scalar PriorityV2VAttack.node[24].nic.mac1609_4 TotalLostPackets 321
scalar PriorityV2VAttack.node[24].nic.mac1609_4 DroppedPacketsInMac 0
scalar PriorityV2VAttack.node[24].nic.mac1609_4 TooLittleTime 0
scalar PriorityV2VAttack.node[24].nic.mac1609_4 TimesIntoBackoff 130
scalar PriorityV2VAttack.node[24].nic.mac1609_4 SlotsBackoff 202
scalar PriorityV2VAttack.node[24].nic.mac1609_4 NumInternalContention 0
scalar PriorityV2VAttack.node[24].nic.mac1609_4 totalBusyTime 0.280514
scalar PriorityV2VAttack.node[24].nic.mac1609_4 NodeDownCount 0
scalar PriorityV2VAttack.node[24].nic.mac1609_4 retriesExceeded:count 0
attr source org_car2x_veins_modules_mac_sigRetriesExceeded
scalar PriorityV2VAttack.node[24].nic.mac1609_4 sentAcks:count 0
attr source org_car2x_veins_modules_mac_sigSentAck
scalar PriorityV2VAttack.node[24].nic.mac1609_4 sentPackets:count 130
attr source org_car2x_veins_modules_mac_sigSentPacket
scalar PriorityV2VAttack.node[24].nic.mac1609_4 collisions:count 0
attr source org_car2x_veins_modules_mac_sigCollision
scalar PriorityV2VAttack.node[24].nic.mac1609_4 channelBusy:timeavg 0.0021578
attr source org_car2x_veins_modules_mac_sigChannelBusy
scalar PriorityV2VAttack.node[24].veinsmobility startTime 70
scalar PriorityV2VAttack.node[24].veinsmobility totalTime 130
scalar PriorityV2VAttack.node[24].veinsmobility stopTime 200
scalar PriorityV2VAttack.node[24].veinsmobility minSpeed 4.0109846863884
scalar PriorityV2VAttack.node[24].veinsmobility maxSpeed 13.996943999445
scalar PriorityV2VAttack.node[24].veinsmobility totalDistance 1641.2199423861
scalar PriorityV2VAttack.node[24].veinsmobility totalCO2Emission 296.68592102826
scalar PriorityV2VAttack.node[25].appl generatedWSMs 0
scalar PriorityV2VAttack.node[25].appl receivedWSMs 0
scalar PriorityV2VAttack.node[25].appl generatedBSMs 127
scalar PriorityV2VAttack.node[25].appl receivedBSMs 2253
scalar PriorityV2VAttack.node[25].appl generatedWSAs 0
scalar PriorityV2VAttack.node[25].appl receivedWSAs 0
scalar PriorityV2VAttack.node[25].nic.phy80211p busyTime 0.0020906456692913
scalar PriorityV2VAttack.node[25].nic.mac1609_4 ReceivedUnicastPackets 0
scalar PriorityV2VAttack.node[25].nic.mac1609_4 ReceivedBroadcasts 2253
scalar PriorityV2VAttack.node[25].nic.mac1609_4 SentPackets 127
scalar PriorityV2VAttack.node[25].nic.mac1609_4 SentAcknowledgements 0
scalar PriorityV2VAttack.node[25].nic.mac1609_4 RetriesExceeded 0
scalar PriorityV2VAttack.node[25].nic.mac1609_4 SNIRLostPackets 300
scalar PriorityV2VAttack.node[25].nic.mac1609_4 RXTXLostPackets 0
scalar PriorityV2VAttack.node[25].nic.mac1609_4 TotalLostPackets 300
scalar PriorityV2VAttack.node[25].nic.mac1609_4 DroppedPacketsInMac 0
scalar PriorityV2VAttack.node[25].nic.mac1609_4 TooLittleTime 0
scalar PriorityV2VAttack.node[25].nic.mac1609_4 TimesIntoBackoff 127
scalar PriorityV2VAttack.node[25].nic.mac1609_4 SlotsBackoff 189
scalar PriorityV2VAttack.node[25].nic.mac1609_4 NumInternalContention 0
scalar PriorityV2VAttack.node[25].nic.mac1609_4 totalBusyTime 0.278847
scalar PriorityV2VAttack.node[25].nic.mac1609_4 NodeDownCount 0
scalar PriorityV2VAttack.node[25].nic.mac1609_4 retriesExceeded:count 0
attr source org_car2x_veins_modules_mac_sigRetriesExceeded
scalar PriorityV2VAttack.node[25].nic.mac1609_4 sentAcks:count 0
attr source org_car2x_veins_modules_mac_sigSentAck
scalar PriorityV2VAttack.node[25].nic.mac1609_4 sentPackets:count 127
attr source org_car2x_veins_modules_mac_sigSentPacket
scalar PriorityV2VAttack.node[25].nic.mac1609_4 collisions:count 0
attr source org_car2x_veins_modules_mac_sigCollision
scalar PriorityV2VAttack.node[25].nic.mac1609_4 channelBusy:timeavg 0.0021956456692913
attr source org_car2x_veins_modules_mac_sigChannelBusy
scalar PriorityV2VAttack.node[25].veinsmobility startTime 73
scalar PriorityV2VAttack.node[25].veinsmobility totalTime 127
scalar PriorityV2VAttack.node[25].veinsmobility stopTime 200
scalar PriorityV2VAttack.node[25].veinsmobility minSpeed 3.951523708284
scalar PriorityV2VAttack.node[25].veinsmobility maxSpeed 13.999659525047
scalar PriorityV2VAttack.node[25].veinsmobility totalDistance 1614.1669397916
scalar PriorityV2VAttack.node[25].veinsmobility totalCO2Emission 295.48780281564
scalar PriorityV2VAttack.node[26].appl generatedWSMs 0
scalar PriorityV2VAttack.node[26].appl receivedWSMs 0
scalar PriorityV2VAttack.node[26].appl generatedBSMs 124
scalar PriorityV2VAttack.node[26].appl receivedBSMs 2260
scalar PriorityV2VAttack.node[26].appl generatedWSAs 0
scalar PriorityV2VAttack.node[26].appl receivedWSAs 0
scalar PriorityV2VAttack.node[26].nic.phy80211p busyTime 0.0021194193548387
scalar PriorityV2VAttack.node[26].nic.mac1609_4 ReceivedUnicastPackets 0
scalar PriorityV2VAttack.node[26].nic.mac1609_4 ReceivedBroadcasts 2260
scalar PriorityV2VAttack.node[26].nic.mac1609_4 SentPackets 124
scalar PriorityV2VAttack.node[26].nic.mac1609_4 SentAcknowledgements 0
scalar PriorityV2VAttack.node[26].nic.mac1609_4 RetriesExceeded 0
scalar PriorityV2VAttack.node[26].nic.mac1609_4 SNIRLostPackets 267
scalar PriorityV2VAttack.node[26].nic.mac1609_4 RXTXLostPackets 0
scalar PriorityV2VAttack.node[26].nic.mac1609_4 TotalLostPackets 267
scalar PriorityV2VAttack.node[26].nic.mac1609_4 DroppedPacketsInMac 0
scalar PriorityV2VAttack.node[26].nic.mac1609_4 TooLittleTime 0
scalar PriorityV2VAttack.node[26].nic.mac1609_4 TimesIntoBackoff 124
scalar PriorityV2VAttack.node[26].nic.mac1609_4 SlotsBackoff 190
scalar PriorityV2VAttack.node[26].nic.mac1609_4 NumInternalContention 0
scalar PriorityV2VAttack.node[26].nic.mac1609_4 totalBusyTime 0.275828
scalar PriorityV2VAttack.node[26].nic.mac1609_4 NodeDownCount 0
scalar PriorityV2VAttack.node[26].nic.mac1609_4 retriesExceeded:count 0
attr source org_car2x_veins_modules_mac_sigRetriesExceeded
scalar PriorityV2VAttack.node[26].nic.mac1609_4 sentAcks:count 0
attr source org_car2x_veins_modules_mac_sigSentAck
scalar PriorityV2VAttack.node[26].nic.mac1609_4 sentPackets:count 124
attr source org_car2x_veins_modules_mac_sigSentPacket
scalar PriorityV2VAttack.node[26].nic.mac1609_4 collisions:count 0
attr source org_car2x_veins_modules_mac_sigCollision
scalar PriorityV2VAttack.node[26].nic.mac1609_4 channelBusy:timeavg 0.0022244193548387
attr source org_car2x_veins_modules_mac_sigChannelBusy
scalar PriorityV2VAttack.node[26].veinsmobility startTime 76
scalar PriorityV2VAttack.node[26].veinsmobility totalTime 124
scalar PriorityV2VAttack.node[26].veinsmobility stopTime 200
scalar PriorityV2VAttack.node[26].veinsmobility minSpeed 4.1179416208439
scalar PriorityV2VAttack.node[26].veinsmobility maxSpeed 13.994778898368
scalar PriorityV2VAttack.node[26].veinsmobility totalDistance 1587.8256101165
scalar PriorityV2VAttack.node[26].veinsmobility totalCO2Emission 289.34886556986
scalar PriorityV2VAttack.node[27].appl generatedWSMs 0
scalar PriorityV2VAttack.node[27].appl receivedWSMs 0
scalar PriorityV2VAttack.node[27].appl generatedBSMs 121
scalar PriorityV2VAttack.node[27].appl receivedBSMs 2257
scalar PriorityV2VAttack.node[27].appl generatedWSAs 0
scalar PriorityV2VAttack.node[27].appl receivedWSAs 0
scalar PriorityV2VAttack.node[27].nic.phy80211p busyTime 0.0021642314049586
scalar PriorityV2VAttack.node[27].nic.mac1609_4 ReceivedUnicastPackets 0
scalar PriorityV2VAttack.node[27].nic.mac1609_4 ReceivedBroadcasts 2257
scalar PriorityV2VAttack.node[27].nic.mac1609_4 SentPackets 121
scalar PriorityV2VAttack.node[27].nic.mac1609_4 SentAcknowledgements 0
scalar PriorityV2VAttack.node[27].nic.mac1609_4 RetriesExceeded 0
scalar PriorityV2VAttack.node[27].nic.mac1609_4 SNIRLostPackets 261
scalar PriorityV2VAttack.node[27].nic.mac1609_4 RXTXLostPackets 0
scalar PriorityV2VAttack.node[27].nic.mac1609_4 TotalLostPackets 261
scalar PriorityV2VAttack.node[27].nic.mac1609_4 DroppedPacketsInMac 0
scalar PriorityV2VAttack.node[27].nic.mac1609_4 TooLittleTime 0
scalar PriorityV2VAttack.node[27].nic.mac1609_4 TimesIntoBackoff 121
scalar PriorityV2VAttack.node[27].nic.mac1609_4 SlotsBackoff 180
scalar PriorityV2VAttack.node[27].nic.mac1609_4 NumInternalContention 0
scalar PriorityV2VAttack.node[27].nic.mac1609_4 totalBusyTime 0.274577
scalar PriorityV2VAttack.node[27].nic.mac1609_4 NodeDownCount 0
scalar PriorityV2VAttack.node[27].nic.mac1609_4 retriesExceeded:count 0
attr source org_car2x_veins_modules_mac_sigRetriesExceeded
scalar PriorityV2VAttack.node[27].nic.mac1609_4 sentAcks:count 0
attr source org_car2x_veins_modules_mac_sigSentAck
scalar PriorityV2VAttack.node[27].nic.mac1609_4 sentPackets:count 121
attr source org_car2x_veins_modules_mac_sigSentPacket
scalar PriorityV2VAttack.node[27].nic.mac1609_4 collisions:count 0
attr source org_car2x_veins_modules_mac_sigCollision
scalar PriorityV2VAttack.node[27].nic.mac1609_4 channelBusy:timeavg 0.0022692314049586
attr source org_car2x_veins_modules_mac_sigChannelBusy
scalar PriorityV2VAttack.node[27].veinsmobility startTime 79
scalar PriorityV2VAttack.node[27].veinsmobility totalTime 121
scalar PriorityV2VAttack.node[27].veinsmobility stopTime 200
scalar PriorityV2VAttack.node[27].veinsmobility minSpeed 3.8541923716738
scalar PriorityV2VAttack.node[27].veinsmobility maxSpeed 13.995070113812
scalar PriorityV2VAttack.node[27].veinsmobility totalDistance 1561.7388774321
scalar PriorityV2VAttack.node[27].veinsmobility totalCO2Emission 287.78699632418
scalar PriorityV2VAttack.node[28].appl generatedWSMs 0
scalar PriorityV2VAttack.node[28].appl receivedWSMs 0
scalar PriorityV2VAttack.node[28].appl generatedBSMs 118
scalar PriorityV2VAttack.node[28].appl receivedBSMs 2274
scalar PriorityV2VAttack.node[28].appl generatedWSAs 0
scalar PriorityV2VAttack.node[28].appl receivedWSAs 0
scalar PriorityV2VAttack.node[28].nic.phy80211p busyTime 0.0022315932203389
scalar PriorityV2VAttack.node[28].nic.mac1609_4 ReceivedUnicastPackets 0
scalar PriorityV2VAttack.node[28].nic.mac1609_4 ReceivedBroadcasts 2274
scalar PriorityV2VAttack.node[28].nic.mac1609_4 SentPackets 118
scalar PriorityV2VAttack.node[28].nic.mac1609_4 SentAcknowledgements 0
scalar PriorityV2VAttack.node[28].nic.mac1609_4 RetriesExceeded 0
scalar PriorityV2VAttack.node[28].nic.mac1609_4 SNIRLostPackets 258
scalar PriorityV2VAttack.node[28].nic.mac1609_4 RXTXLostPackets 0
scalar PriorityV2VAttack.node[28].nic.mac1609_4 TotalLostPackets 258
scalar PriorityV2VAttack.node[28].nic.mac1609_4 DroppedPacketsInMac 0
scalar PriorityV2VAttack.node[28].nic.mac1609_4 TooLittleTime 0
scalar PriorityV2VAttack.node[28].nic.mac1609_4 TimesIntoBackoff 118
scalar PriorityV2VAttack.node[28].nic.mac1609_4 SlotsBackoff 165
scalar PriorityV2VAttack.node[28].nic.mac1609_4 NumInternalContention 0
scalar PriorityV2VAttack.node[28].nic.mac1609_4 totalBusyTime 0.275718
scalar PriorityV2VAttack.node[28].nic.mac1609_4 NodeDownCount 0
scalar PriorityV2VAttack.node[28].nic.mac1609_4 retriesExceeded:count 0
attr source org_car2x_veins_modules_mac_sigRetriesExceeded
scalar PriorityV2VAttack.node[28].nic.mac1609_4 sentAcks:count 0
attr source org_car2x_veins_modules_mac_sigSentAck
scalar PriorityV2VAttack.node[28].nic.mac1609_4 sentPackets:count 118
attr source org_car2x_veins_modules_mac_sigSentPacket
scalar PriorityV2VAttack.node[28].nic.mac1609_4 collisions:count 0
attr source org_car2x_veins_modules_mac_sigCollision
scalar PriorityV2VAttack.node[28].nic.mac1609_4 channelBusy:timeavg 0.0023365932203389
attr source org_car2x_veins_modules_mac_sigChannelBusy
scalar PriorityV2VAttack.node[28].veinsmobility startTime 82
scalar PriorityV2VAttack.node[28].veinsmobility totalTime 118
scalar PriorityV2VAttack.node[28].veinsmobility stopTime 200
scalar PriorityV2VAttack.node[28].veinsmobility minSpeed 4.0478502342621
scalar PriorityV2VAttack.node[28].veinsmobility maxSpeed 13.991711857808
scalar PriorityV2VAttack.node[28].veinsmobility totalDistance 1535.2390593317
scalar PriorityV2VAttack.node[28].veinsmobility totalCO2Emission 282.43405033205
scalar PriorityV2VAttack.node[29].appl generatedWSMs 0
scalar PriorityV2VAttack.node[29].appl receivedWSMs 0
scalar PriorityV2VAttack.node[29].appl generatedBSMs 115
scalar PriorityV2VAttack.node[29].appl receivedBSMs 2282
scalar PriorityV2VAttack.node[29].appl generatedWSAs 0
scalar PriorityV2VAttack.node[29].appl receivedWSAs 0
scalar PriorityV2VAttack.node[29].nic.phy80211p busyTime 0.002268104347826
scalar PriorityV2VAttack.node[29].nic.mac1609_4 ReceivedUnicastPackets 0
scalar PriorityV2VAttack.node[29].nic.mac1609_4 ReceivedBroadcasts 2282
scalar PriorityV2VAttack.node[29].nic.mac1609_4 SentPackets 115
scalar PriorityV2VAttack.node[29].nic.mac1609_4 SentAcknowledgements 0
scalar PriorityV2VAttack.node[29].nic.mac1609_4 RetriesExceeded 0
scalar PriorityV2VAttack.node[29].nic.mac1609_4 SNIRLostPackets 226
scalar PriorityV2VAttack.node[29].nic.mac1609_4 RXTXLostPackets 0
scalar PriorityV2VAttack.node[29].nic.mac1609_4 TotalLostPackets 226
scalar PriorityV2VAttack.node[29].nic.mac1609_4 DroppedPacketsInMac 0
scalar PriorityV2VAttack.node[29].nic.mac1609_4 TooLittleTime 0
scalar PriorityV2VAttack.node[29].nic.mac1609_4 TimesIntoBackoff 115
scalar PriorityV2VAttack.node[29].nic.mac1609_4 SlotsBackoff 149
scalar PriorityV2VAttack.node[29].nic.mac1609_4 NumInternalContention 0
scalar PriorityV2VAttack.node[29].nic.mac1609_4 totalBusyTime 0.272907
scalar PriorityV2VAttack.node[29].nic.mac1609_4 NodeDownCount 0
scalar PriorityV2VAttack.node[29].nic.mac1609_4 retriesExceeded:count 0
attr source org_car2x_veins_modules_mac_sigRetriesExceeded
scalar PriorityV2VAttack.node[29].nic.mac1609_4 sentAcks:count 0
attr source org_car2x_veins_modules_mac_sigSentAck
scalar PriorityV2VAttack.node[29].nic.mac1609_4 sentPackets:count 115
attr source org_car2x_veins_modules_mac_sigSentPacket
scalar PriorityV2VAttack.node[29].nic.mac1609_4 collisions:count 0
attr source org_car2x_veins_modules_mac_sigCollision
scalar PriorityV2VAttack.node[29].nic.mac1609_4 channelBusy:timeavg 0.002373104347826
attr source org_car2x_veins_modules_mac_sigChannelBusy
scalar PriorityV2VAttack.node[29].veinsmobility startTime 85
scalar PriorityV2VAttack.node[29].veinsmobility totalTime 115
scalar PriorityV2VAttack.node[29].veinsmobility stopTime 200
scalar PriorityV2VAttack.node[29].veinsmobility minSpeed 4.1368244981366
scalar PriorityV2VAttack.node[29].veinsmobility maxSpeed 13.995045116786
scalar PriorityV2VAttack.node[29].veinsmobility totalDistance 1506.6239876602
scalar PriorityV2VAttack.node[29].veinsmobility totalCO2Emission 278.81175574892
scalar PriorityV2VAttack.node[30].appl generatedWSMs 0
scalar PriorityV2VAttack.node[30].appl receivedWSMs 0
scalar PriorityV2VAttack.node[30].appl generatedBSMs 112
scalar PriorityV2VAttack.node[30].appl receivedBSMs 2295
scalar PriorityV2VAttack.node[30].appl generatedWSAs 0
scalar PriorityV2VAttack.node[30].appl receivedWSAs 0
scalar PriorityV2VAttack.node[30].nic.phy80211p busyTime 0.0023065714285714
scalar PriorityV2VAttack.node[30].nic.mac1609_4 ReceivedUnicastPackets 0
scalar PriorityV2VAttack.node[30].nic.mac1609_4 ReceivedBroadcasts 2295
scalar PriorityV2VAttack.node[30].nic.mac1609_4 SentPackets 112
scalar PriorityV2VAttack.node[30].nic.mac1609_4 SentAcknowledgements 0
scalar PriorityV2VAttack.node[30].nic.mac1609_4 RetriesExceeded 0
[...]
scalar PriorityV2VAttack.node[60].appl generatedWSAs 0
scalar PriorityV2VAttack.node[60].appl receivedWSAs 0
scalar PriorityV2VAttack.node[60].nic.phy80211p busyTime 0.0016781818181818
scalar PriorityV2VAttack.node[60].nic.mac1609_4 ReceivedUnicastPackets 0
scalar PriorityV2VAttack.node[60].nic.mac1609_4 ReceivedBroadcasts 331
scalar PriorityV2VAttack.node[60].nic.mac1609_4 SentPackets 22
scalar PriorityV2VAttack.node[60].nic.mac1609_4 SentAcknowledgements 0
scalar PriorityV2VAttack.node[60].nic.mac1609_4 RetriesExceeded 0
scalar PriorityV2VAttack.node[60].nic.mac1609_4 SNIRLostPackets 24
scalar PriorityV2VAttack.node[60].nic.mac1609_4 RXTXLostPackets 0
scalar PriorityV2VAttack.node[60].nic.mac1609_4 TotalLostPackets 24
scalar PriorityV2VAttack.node[60].nic.mac1609_4 DroppedPacketsInMac 0
scalar PriorityV2VAttack.node[60].nic.mac1609_4 TooLittleTime 0
scalar PriorityV2VAttack.node[60].nic.mac1609_4 TimesIntoBackoff 22
scalar PriorityV2VAttack.node[60].nic.mac1609_4 SlotsBackoff 30
scalar PriorityV2VAttack.node[60].nic.mac1609_4 NumInternalContention 0
scalar PriorityV2VAttack.node[60].nic.mac1609_4 totalBusyTime 0.03923
scalar PriorityV2VAttack.node[60].nic.mac1609_4 NodeDownCount 0
scalar PriorityV2VAttack.node[60].nic.mac1609_4 retriesExceeded:count 0
attr source org_car2x_veins_modules_mac_sigRetriesExceeded
scalar PriorityV2VAttack.node[60].nic.mac1609_4 sentAcks:count 0
attr source org_car2x_veins_modules_mac_sigSentAck
scalar PriorityV2VAttack.node[60].nic.mac1609_4 sentPackets:count 22
attr source org_car2x_veins_modules_mac_sigSentPacket
scalar PriorityV2VAttack.node[60].nic.mac1609_4 collisions:count 0
attr source org_car2x_veins_modules_mac_sigCollision
scalar PriorityV2VAttack.node[60].nic.mac1609_4 channelBusy:timeavg 0.0017831818181818
attr source org_car2x_veins_modules_mac_sigChannelBusy
scalar PriorityV2VAttack.node[60].veinsmobility startTime 178
scalar PriorityV2VAttack.node[60].veinsmobility totalTime 22
scalar PriorityV2VAttack.node[60].veinsmobility stopTime 200
scalar PriorityV2VAttack.node[60].veinsmobility minSpeed 4.2559510328259
scalar PriorityV2VAttack.node[60].veinsmobility maxSpeed 11.274169162431
scalar PriorityV2VAttack.node[60].veinsmobility totalDistance 222.70271212165
scalar PriorityV2VAttack.node[60].veinsmobility totalCO2Emission 49.750284574394
scalar PriorityV2VAttack.node[61].appl generatedWSMs 0
scalar PriorityV2VAttack.node[61].appl receivedWSMs 0
scalar PriorityV2VAttack.node[61].appl generatedBSMs 19
scalar PriorityV2VAttack.node[61].appl receivedBSMs 279
scalar PriorityV2VAttack.node[61].appl generatedWSAs 0
scalar PriorityV2VAttack.node[61].appl receivedWSAs 0
scalar PriorityV2VAttack.node[61].nic.phy80211p busyTime 0.0016585263157895
scalar PriorityV2VAttack.node[61].nic.mac1609_4 ReceivedUnicastPackets 0
scalar PriorityV2VAttack.node[61].nic.mac1609_4 ReceivedBroadcasts 279
scalar PriorityV2VAttack.node[61].nic.mac1609_4 SentPackets 19
scalar PriorityV2VAttack.node[61].nic.mac1609_4 SentAcknowledgements 0
scalar PriorityV2VAttack.node[61].nic.mac1609_4 RetriesExceeded 0
scalar PriorityV2VAttack.node[61].nic.mac1609_4 SNIRLostPackets 24
scalar PriorityV2VAttack.node[61].nic.mac1609_4 RXTXLostPackets 0
scalar PriorityV2VAttack.node[61].nic.mac1609_4 TotalLostPackets 24
scalar PriorityV2VAttack.node[61].nic.mac1609_4 DroppedPacketsInMac 0
scalar PriorityV2VAttack.node[61].nic.mac1609_4 TooLittleTime 0
scalar PriorityV2VAttack.node[61].nic.mac1609_4 TimesIntoBackoff 19
scalar PriorityV2VAttack.node[61].nic.mac1609_4 SlotsBackoff 38
scalar PriorityV2VAttack.node[61].nic.mac1609_4 NumInternalContention 0
scalar PriorityV2VAttack.node[61].nic.mac1609_4 totalBusyTime 0.033507
scalar PriorityV2VAttack.node[61].nic.mac1609_4 NodeDownCount 0
scalar PriorityV2VAttack.node[61].nic.mac1609_4 retriesExceeded:count 0
attr source org_car2x_veins_modules_mac_sigRetriesExceeded
scalar PriorityV2VAttack.node[61].nic.mac1609_4 sentAcks:count 0
attr source org_car2x_veins_modules_mac_sigSentAck
scalar PriorityV2VAttack.node[61].nic.mac1609_4 sentPackets:count 19
attr source org_car2x_veins_modules_mac_sigSentPacket
scalar PriorityV2VAttack.node[61].nic.mac1609_4 collisions:count 0
attr source org_car2x_veins_modules_mac_sigCollision
scalar PriorityV2VAttack.node[61].nic.mac1609_4 channelBusy:timeavg 0.0017635263157895
attr source org_car2x_veins_modules_mac_sigChannelBusy
scalar PriorityV2VAttack.node[61].veinsmobility startTime 181
scalar PriorityV2VAttack.node[61].veinsmobility totalTime 19
scalar PriorityV2VAttack.node[61].veinsmobility stopTime 200
scalar PriorityV2VAttack.node[61].veinsmobility minSpeed 3.7929458832696
scalar PriorityV2VAttack.node[61].veinsmobility maxSpeed 12.84857585862
scalar PriorityV2VAttack.node[61].veinsmobility totalDistance 206.57569161638
scalar PriorityV2VAttack.node[61].veinsmobility totalCO2Emission 48.749092181783
scalar PriorityV2VAttack.node[62].appl generatedWSMs 0
scalar PriorityV2VAttack.node[62].appl receivedWSMs 0
scalar PriorityV2VAttack.node[62].appl generatedBSMs 16
scalar PriorityV2VAttack.node[62].appl receivedBSMs 238
scalar PriorityV2VAttack.node[62].appl generatedWSAs 0
scalar PriorityV2VAttack.node[62].appl receivedWSAs 0
scalar PriorityV2VAttack.node[62].nic.phy80211p busyTime 0.0016445
scalar PriorityV2VAttack.node[62].nic.mac1609_4 ReceivedUnicastPackets 0
scalar PriorityV2VAttack.node[62].nic.mac1609_4 ReceivedBroadcasts 238
scalar PriorityV2VAttack.node[62].nic.mac1609_4 SentPackets 16
scalar PriorityV2VAttack.node[62].nic.mac1609_4 SentAcknowledgements 0
scalar PriorityV2VAttack.node[62].nic.mac1609_4 RetriesExceeded 0
scalar PriorityV2VAttack.node[62].nic.mac1609_4 SNIRLostPackets 15
scalar PriorityV2VAttack.node[62].nic.mac1609_4 RXTXLostPackets 0
scalar PriorityV2VAttack.node[62].nic.mac1609_4 TotalLostPackets 15
scalar PriorityV2VAttack.node[62].nic.mac1609_4 DroppedPacketsInMac 0
scalar PriorityV2VAttack.node[62].nic.mac1609_4 TooLittleTime 0
scalar PriorityV2VAttack.node[62].nic.mac1609_4 TimesIntoBackoff 16
scalar PriorityV2VAttack.node[62].nic.mac1609_4 SlotsBackoff 24
scalar PriorityV2VAttack.node[62].nic.mac1609_4 NumInternalContention 0
scalar PriorityV2VAttack.node[62].nic.mac1609_4 totalBusyTime 0.027992
scalar PriorityV2VAttack.node[62].nic.mac1609_4 NodeDownCount 0
scalar PriorityV2VAttack.node[62].nic.mac1609_4 retriesExceeded:count 0
attr source org_car2x_veins_modules_mac_sigRetriesExceeded
scalar PriorityV2VAttack.node[62].nic.mac1609_4 sentAcks:count 0
attr source org_car2x_veins_modules_mac_sigSentAck
scalar PriorityV2VAttack.node[62].nic.mac1609_4 sentPackets:count 16
attr source org_car2x_veins_modules_mac_sigSentPacket
scalar PriorityV2VAttack.node[62].nic.mac1609_4 collisions:count 0
attr source org_car2x_veins_modules_mac_sigCollision
scalar PriorityV2VAttack.node[62].nic.mac1609_4 channelBusy:timeavg 0.0017495
attr source org_car2x_veins_modules_mac_sigChannelBusy
scalar PriorityV2VAttack.node[62].veinsmobility startTime 184
scalar PriorityV2VAttack.node[62].veinsmobility totalTime 16
scalar PriorityV2VAttack.node[62].veinsmobility stopTime 200
scalar PriorityV2VAttack.node[62].veinsmobility minSpeed 3.9643027338979
scalar PriorityV2VAttack.node[62].veinsmobility maxSpeed 13.381397598181
scalar PriorityV2VAttack.node[62].veinsmobility totalDistance 179.76706263353
scalar PriorityV2VAttack.node[62].veinsmobility totalCO2Emission 48.669755552151
scalar PriorityV2VAttack.node[63].appl generatedWSMs 0
scalar PriorityV2VAttack.node[63].appl receivedWSMs 0
scalar PriorityV2VAttack.node[63].appl generatedBSMs 13
scalar PriorityV2VAttack.node[63].appl receivedBSMs 207
scalar PriorityV2VAttack.node[63].appl generatedWSAs 0
scalar PriorityV2VAttack.node[63].appl receivedWSAs 0
scalar PriorityV2VAttack.node[63].nic.phy80211p busyTime 0.001744
scalar PriorityV2VAttack.node[63].nic.mac1609_4 ReceivedUnicastPackets 0
scalar PriorityV2VAttack.node[63].nic.mac1609_4 ReceivedBroadcasts 207
scalar PriorityV2VAttack.node[63].nic.mac1609_4 SentPackets 13
scalar PriorityV2VAttack.node[63].nic.mac1609_4 SentAcknowledgements 0
scalar PriorityV2VAttack.node[63].nic.mac1609_4 RetriesExceeded 0
scalar PriorityV2VAttack.node[63].nic.mac1609_4 SNIRLostPackets 11
scalar PriorityV2VAttack.node[63].nic.mac1609_4 RXTXLostPackets 0
scalar PriorityV2VAttack.node[63].nic.mac1609_4 TotalLostPackets 11
scalar PriorityV2VAttack.node[63].nic.mac1609_4 DroppedPacketsInMac 0
scalar PriorityV2VAttack.node[63].nic.mac1609_4 TooLittleTime 0
scalar PriorityV2VAttack.node[63].nic.mac1609_4 TimesIntoBackoff 13
scalar PriorityV2VAttack.node[63].nic.mac1609_4 SlotsBackoff 18
scalar PriorityV2VAttack.node[63].nic.mac1609_4 NumInternalContention 0
scalar PriorityV2VAttack.node[63].nic.mac1609_4 totalBusyTime 0.024037
scalar PriorityV2VAttack.node[63].nic.mac1609_4 NodeDownCount 0
scalar PriorityV2VAttack.node[63].nic.mac1609_4 retriesExceeded:count 0
attr source org_car2x_veins_modules_mac_sigRetriesExceeded
scalar PriorityV2VAttack.node[63].nic.mac1609_4 sentAcks:count 0
attr source org_car2x_veins_modules_mac_sigSentAck
scalar PriorityV2VAttack.node[63].nic.mac1609_4 sentPackets:count 13
attr source org_car2x_veins_modules_mac_sigSentPacket
scalar PriorityV2VAttack.node[63].nic.mac1609_4 collisions:count 0
attr source org_car2x_veins_modules_mac_sigCollision
scalar PriorityV2VAttack.node[63].nic.mac1609_4 channelBusy:timeavg 0.001849
attr source org_car2x_veins_modules_mac_sigChannelBusy
scalar PriorityV2VAttack.node[63].veinsmobility startTime 187
scalar PriorityV2VAttack.node[63].veinsmobility totalTime 13
scalar PriorityV2VAttack.node[63].veinsmobility stopTime 200
scalar PriorityV2VAttack.node[63].veinsmobility minSpeed 3.9763429005056
scalar PriorityV2VAttack.node[63].veinsmobility maxSpeed 13.667736121664
scalar PriorityV2VAttack.node[63].veinsmobility totalDistance 141.82023789111
scalar PriorityV2VAttack.node[63].veinsmobility totalCO2Emission 44.994078679557
scalar PriorityV2VAttack.node[64].appl generatedWSMs 0
scalar PriorityV2VAttack.node[64].appl receivedWSMs 0
scalar PriorityV2VAttack.node[64].appl generatedBSMs 10
scalar PriorityV2VAttack.node[64].appl receivedBSMs 171
scalar PriorityV2VAttack.node[64].appl generatedWSAs 0
scalar PriorityV2VAttack.node[64].appl receivedWSAs 0
scalar PriorityV2VAttack.node[64].nic.phy80211p busyTime 0.0018408
scalar PriorityV2VAttack.node[64].nic.mac1609_4 ReceivedUnicastPackets 0
scalar PriorityV2VAttack.node[64].nic.mac1609_4 ReceivedBroadcasts 171
scalar PriorityV2VAttack.node[64].nic.mac1609_4 SentPackets 10
scalar PriorityV2VAttack.node[64].nic.mac1609_4 SentAcknowledgements 0
scalar PriorityV2VAttack.node[64].nic.mac1609_4 RetriesExceeded 0
scalar PriorityV2VAttack.node[64].nic.mac1609_4 SNIRLostPackets 6
scalar PriorityV2VAttack.node[64].nic.mac1609_4 RXTXLostPackets 0
scalar PriorityV2VAttack.node[64].nic.mac1609_4 TotalLostPackets 6
scalar PriorityV2VAttack.node[64].nic.mac1609_4 DroppedPacketsInMac 0
scalar PriorityV2VAttack.node[64].nic.mac1609_4 TooLittleTime 0
scalar PriorityV2VAttack.node[64].nic.mac1609_4 TimesIntoBackoff 10
scalar PriorityV2VAttack.node[64].nic.mac1609_4 SlotsBackoff 20
scalar PriorityV2VAttack.node[64].nic.mac1609_4 NumInternalContention 0
scalar PriorityV2VAttack.node[64].nic.mac1609_4 totalBusyTime 0.019458
scalar PriorityV2VAttack.node[64].nic.mac1609_4 NodeDownCount 0
scalar PriorityV2VAttack.node[64].nic.mac1609_4 retriesExceeded:count 0
attr source org_car2x_veins_modules_mac_sigRetriesExceeded
scalar PriorityV2VAttack.node[64].nic.mac1609_4 sentAcks:count 0
attr source org_car2x_veins_modules_mac_sigSentAck
scalar PriorityV2VAttack.node[64].nic.mac1609_4 sentPackets:count 10
attr source org_car2x_veins_modules_mac_sigSentPacket
scalar PriorityV2VAttack.node[64].nic.mac1609_4 collisions:count 0
attr source org_car2x_veins_modules_mac_sigCollision
scalar PriorityV2VAttack.node[64].nic.mac1609_4 channelBusy:timeavg 0.0019458
attr source org_car2x_veins_modules_mac_sigChannelBusy
scalar PriorityV2VAttack.node[64].veinsmobility startTime 190
scalar PriorityV2VAttack.node[64].veinsmobility totalTime 10
scalar PriorityV2VAttack.node[64].veinsmobility stopTime 200
scalar PriorityV2VAttack.node[64].veinsmobility minSpeed 4.0010424112291
scalar PriorityV2VAttack.node[64].veinsmobility maxSpeed 13.977768345661
scalar PriorityV2VAttack.node[64].veinsmobility totalDistance 105.00141460445
scalar PriorityV2VAttack.node[64].veinsmobility totalCO2Emission 40.578044894371
scalar PriorityV2VAttack.node[65].appl generatedWSMs 0
scalar PriorityV2VAttack.node[65].appl receivedWSMs 0
scalar PriorityV2VAttack.node[65].appl generatedBSMs 7
scalar PriorityV2VAttack.node[65].appl receivedBSMs 132
scalar PriorityV2VAttack.node[65].appl generatedWSAs 0
scalar PriorityV2VAttack.node[65].appl receivedWSAs 0
scalar PriorityV2VAttack.node[65].nic.phy80211p busyTime 0.0020205714285714
scalar PriorityV2VAttack.node[65].nic.mac1609_4 ReceivedUnicastPackets 0
scalar PriorityV2VAttack.node[65].nic.mac1609_4 ReceivedBroadcasts 132
scalar PriorityV2VAttack.node[65].nic.mac1609_4 SentPackets 7
scalar PriorityV2VAttack.node[65].nic.mac1609_4 SentAcknowledgements 0
scalar PriorityV2VAttack.node[65].nic.mac1609_4 RetriesExceeded 0
scalar PriorityV2VAttack.node[65].nic.mac1609_4 SNIRLostPackets 4
scalar PriorityV2VAttack.node[65].nic.mac1609_4 RXTXLostPackets 0
scalar PriorityV2VAttack.node[65].nic.mac1609_4 TotalLostPackets 4
scalar PriorityV2VAttack.node[65].nic.mac1609_4 DroppedPacketsInMac 0
scalar PriorityV2VAttack.node[65].nic.mac1609_4 TooLittleTime 0
scalar PriorityV2VAttack.node[65].nic.mac1609_4 TimesIntoBackoff 7
scalar PriorityV2VAttack.node[65].nic.mac1609_4 SlotsBackoff 6
scalar PriorityV2VAttack.node[65].nic.mac1609_4 NumInternalContention 0
scalar PriorityV2VAttack.node[65].nic.mac1609_4 totalBusyTime 0.014879
scalar PriorityV2VAttack.node[65].nic.mac1609_4 NodeDownCount 0
scalar PriorityV2VAttack.node[65].nic.mac1609_4 retriesExceeded:count 0
attr source org_car2x_veins_modules_mac_sigRetriesExceeded
scalar PriorityV2VAttack.node[65].nic.mac1609_4 sentAcks:count 0
attr source org_car2x_veins_modules_mac_sigSentAck
scalar PriorityV2VAttack.node[65].nic.mac1609_4 sentPackets:count 7
attr source org_car2x_veins_modules_mac_sigSentPacket
scalar PriorityV2VAttack.node[65].nic.mac1609_4 collisions:count 0
attr source org_car2x_veins_modules_mac_sigCollision
scalar PriorityV2VAttack.node[65].nic.mac1609_4 channelBusy:timeavg 0.0021255714285714
attr source org_car2x_veins_modules_mac_sigChannelBusy
scalar PriorityV2VAttack.node[65].veinsmobility startTime 193
scalar PriorityV2VAttack.node[65].veinsmobility totalTime 7
scalar PriorityV2VAttack.node[65].veinsmobility stopTime 200
scalar PriorityV2VAttack.node[65].veinsmobility minSpeed 4.0963891555032
scalar PriorityV2VAttack.node[65].veinsmobility maxSpeed 13.89932602556
scalar PriorityV2VAttack.node[65].veinsmobility totalDistance 62.429312282623
scalar PriorityV2VAttack.node[65].veinsmobility totalCO2Emission 33.963789179338
scalar PriorityV2VAttack.node[66].appl generatedWSMs 0
scalar PriorityV2VAttack.node[66].appl receivedWSMs 0
scalar PriorityV2VAttack.node[66].appl generatedBSMs 4
scalar PriorityV2VAttack.node[66].appl receivedBSMs 70
scalar PriorityV2VAttack.node[66].appl generatedWSAs 0
scalar PriorityV2VAttack.node[66].appl receivedWSAs 0
scalar PriorityV2VAttack.node[66].nic.phy80211p busyTime 0.002158
scalar PriorityV2VAttack.node[66].nic.mac1609_4 ReceivedUnicastPackets 0
scalar PriorityV2VAttack.node[66].nic.mac1609_4 ReceivedBroadcasts 70
scalar PriorityV2VAttack.node[66].nic.mac1609_4 SentPackets 4
scalar PriorityV2VAttack.node[66].nic.mac1609_4 SentAcknowledgements 0
scalar PriorityV2VAttack.node[66].nic.mac1609_4 RetriesExceeded 0
scalar PriorityV2VAttack.node[66].nic.mac1609_4 SNIRLostPackets 13
scalar PriorityV2VAttack.node[66].nic.mac1609_4 RXTXLostPackets 0
scalar PriorityV2VAttack.node[66].nic.mac1609_4 TotalLostPackets 13
scalar PriorityV2VAttack.node[66].nic.mac1609_4 DroppedPacketsInMac 0
scalar PriorityV2VAttack.node[66].nic.mac1609_4 TooLittleTime 0
scalar PriorityV2VAttack.node[66].nic.mac1609_4 TimesIntoBackoff 4
scalar PriorityV2VAttack.node[66].nic.mac1609_4 SlotsBackoff 7
scalar PriorityV2VAttack.node[66].nic.mac1609_4 NumInternalContention 0
scalar PriorityV2VAttack.node[66].nic.mac1609_4 totalBusyTime 0.009052
scalar PriorityV2VAttack.node[66].nic.mac1609_4 NodeDownCount 0
scalar PriorityV2VAttack.node[66].nic.mac1609_4 retriesExceeded:count 0
attr source org_car2x_veins_modules_mac_sigRetriesExceeded
scalar PriorityV2VAttack.node[66].nic.mac1609_4 sentAcks:count 0
attr source org_car2x_veins_modules_mac_sigSentAck
scalar PriorityV2VAttack.node[66].nic.mac1609_4 sentPackets:count 4
attr source org_car2x_veins_modules_mac_sigSentPacket
scalar PriorityV2VAttack.node[66].nic.mac1609_4 collisions:count 0
attr source org_car2x_veins_modules_mac_sigCollision
scalar PriorityV2VAttack.node[66].nic.mac1609_4 channelBusy:timeavg 0.002263
attr source org_car2x_veins_modules_mac_sigChannelBusy
scalar PriorityV2VAttack.node[66].veinsmobility startTime 196
scalar PriorityV2VAttack.node[66].veinsmobility totalTime 4
scalar PriorityV2VAttack.node[66].veinsmobility stopTime 200
scalar PriorityV2VAttack.node[66].veinsmobility minSpeed 3.8129964193388
scalar PriorityV2VAttack.node[66].veinsmobility maxSpeed 9.5155542239978
scalar PriorityV2VAttack.node[66].veinsmobility totalDistance 23.170299826305
scalar PriorityV2VAttack.node[66].veinsmobility totalCO2Emission 15.032761093514
scalar PriorityV2VAttack.node[67].appl generatedWSMs 0
scalar PriorityV2VAttack.node[67].appl receivedWSMs 0
scalar PriorityV2VAttack.node[67].appl generatedBSMs 1
scalar PriorityV2VAttack.node[67].appl receivedBSMs 18
scalar PriorityV2VAttack.node[67].appl generatedWSAs 0
scalar PriorityV2VAttack.node[67].appl receivedWSAs 0
scalar PriorityV2VAttack.node[67].nic.phy80211p busyTime 0.002288
scalar PriorityV2VAttack.node[67].nic.mac1609_4 ReceivedUnicastPackets 0
scalar PriorityV2VAttack.node[67].nic.mac1609_4 ReceivedBroadcasts 18
scalar PriorityV2VAttack.node[67].nic.mac1609_4 SentPackets 1
scalar PriorityV2VAttack.node[67].nic.mac1609_4 SentAcknowledgements 0
scalar PriorityV2VAttack.node[67].nic.mac1609_4 RetriesExceeded 0
scalar PriorityV2VAttack.node[67].nic.mac1609_4 SNIRLostPackets 4
scalar PriorityV2VAttack.node[67].nic.mac1609_4 RXTXLostPackets 0
scalar PriorityV2VAttack.node[67].nic.mac1609_4 TotalLostPackets 4
scalar PriorityV2VAttack.node[67].nic.mac1609_4 DroppedPacketsInMac 0
scalar PriorityV2VAttack.node[67].nic.mac1609_4 TooLittleTime 0
scalar PriorityV2VAttack.node[67].nic.mac1609_4 TimesIntoBackoff 1
scalar PriorityV2VAttack.node[67].nic.mac1609_4 SlotsBackoff 2
scalar PriorityV2VAttack.node[67].nic.mac1609_4 NumInternalContention 0
scalar PriorityV2VAttack.node[67].nic.mac1609_4 totalBusyTime 0.002393
scalar PriorityV2VAttack.node[67].nic.mac1609_4 NodeDownCount 0
scalar PriorityV2VAttack.node[67].nic.mac1609_4 retriesExceeded:count 0
attr source org_car2x_veins_modules_mac_sigRetriesExceeded
scalar PriorityV2VAttack.node[67].nic.mac1609_4 sentAcks:count 0
attr source org_car2x_veins_modules_mac_sigSentAck
scalar PriorityV2VAttack.node[67].nic.mac1609_4 sentPackets:count 1
attr source org_car2x_veins_modules_mac_sigSentPacket
scalar PriorityV2VAttack.node[67].nic.mac1609_4 collisions:count 0
attr source org_car2x_veins_modules_mac_sigCollision
scalar PriorityV2VAttack.node[67].nic.mac1609_4 channelBusy:timeavg 0.002393
attr source org_car2x_veins_modules_mac_sigChannelBusy
scalar PriorityV2VAttack.node[67].veinsmobility startTime 199
scalar PriorityV2VAttack.node[67].veinsmobility totalTime 1
scalar PriorityV2VAttack.node[67].veinsmobility stopTime 200
scalar PriorityV2VAttack.node[67].veinsmobility minSpeed 4.0133306786479
scalar PriorityV2VAttack.node[67].veinsmobility maxSpeed 4.0133306786479
scalar PriorityV2VAttack.node[67].veinsmobility totalDistance 3.1013316946711
scalar PriorityV2VAttack.node[67].veinsmobility totalCO2Emission 0

