version 2
run WithBeaconing-0-20230724-01:28:24-25303
attr configname WithBeaconing
attr datetime 20230724-01:28:24
attr experiment WithBeaconing
attr inifile omnetpp_pva.ini
attr iterationvars ""
attr iterationvarsf ""
attr measurement ""
attr network PriorityV2VAttack
attr processid 25303
attr repetition 0
attr replication #0
attr resultdir results
attr runnumber 0
attr seedset 0
param *.node[*].appl.sendBeacons true
param *.playgroundSizeX 2500m
param *.playgroundSizeY 2500m
param *.playgroundSizeZ 50m
param *.annotations.draw true
param *.obstacles.obstacles "xmldoc(\"config.xml\", \"//AnalogueModel[@type='SimpleObstacleShadowing']/obstacles\")"
param *.manager.updateInterval 1s
param *.manager.host "\"localhost\""
param *.manager.port 9999
param *.manager.autoShutdown true
param *.manager.launchConfig "xmldoc(\"erlangen.launchd.xml\")"
param *.connectionManager.sendDirect true
param *.connectionManager.maxInterfDist 2600m
param *.connectionManager.drawMaxIntfDist false
param *.**.nic.mac1609_4.useServiceChannel false
param *.**.nic.mac1609_4.txPower 20mW
param *.**.nic.mac1609_4.bitrate 6Mbps
param *.**.nic.phy80211p.minPowerLevel -110dBm
param *.**.nic.phy80211p.useNoiseFloor true
param *.**.nic.phy80211p.noiseFloor -98dBm
param *.**.nic.phy80211p.decider "xmldoc(\"config.xml\")"
param *.**.nic.phy80211p.analogueModels "xmldoc(\"config.xml\")"
param *.**.nic.phy80211p.usePropagationDelay true
param *.**.nic.phy80211p.antenna "xmldoc(\"antenna.xml\", \"/root/Antenna[@id='monopole']\")"
param *.node[*].nic.phy80211p.antennaOffsetY "0 m"
param *.node[*].nic.phy80211p.antennaOffsetZ "1.895 m"
param *.attacker[*].nic.phy80211p.antennaOffsetY "0 m"
param *.attacker[*].nic.phy80211p.antennaOffsetZ "1.895 m"
param *.manager.moduleType "\"vtype1=org.car2x.veins.nodes.Car *=org.car2x.veins.nodes.Car\""
param *.manager.moduleName "\"vtype1=attacker *=node\""
param *.node[*].applType "\"TraCIDemo11p\""
param *.node[*].appl.headerLength "80 bit"
param *.node[*].appl.sendBeacons true
param *.node[*].appl.dataOnSch false
param *.node[*].appl.beaconInterval 1s
param *.node[*].appl.dataUserPriority 7
param *.attacker[*].applType "\"TraCIV2Vp\""
param *.attacker[*].appl.headerLength "80 bit"
param *.attacker[*].appl.sendBeacons true
param *.attacker[*].appl.dataOnSch false
param *.attacker[*].appl.beaconInterval 1s
param *.attacker[*].appl.dataUserPriority 1
param *.node[*].veinsmobility.x 0
param *.node[*].veinsmobility.y 0
param *.node[*].veinsmobility.z 0
param *.node[*].veinsmobility.setHostSpeed false
param *.attacker[*].veinsmobility.x 0
param *.attacker[*].veinsmobility.y 0
param *.attacker[*].veinsmobility.z 0
param *.attacker[*].veinsmobility.setHostSpeed false

vector 0 PriorityV2VAttack.node[0].veinsmobility posx ETV
vector 1 PriorityV2VAttack.node[0].veinsmobility posy ETV
vector 2 PriorityV2VAttack.node[0].veinsmobility speed ETV
vector 3 PriorityV2VAttack.node[0].veinsmobility acceleration ETV
vector 4 PriorityV2VAttack.node[0].veinsmobility co2emission ETV
vector 5 PriorityV2VAttack.node[1].veinsmobility posx ETV
vector 6 PriorityV2VAttack.node[1].veinsmobility posy ETV
vector 7 PriorityV2VAttack.node[1].veinsmobility speed ETV
vector 8 PriorityV2VAttack.node[1].veinsmobility acceleration ETV
vector 9 PriorityV2VAttack.node[1].veinsmobility co2emission ETV
vector 10 PriorityV2VAttack.node[2].veinsmobility posx ETV
vector 11 PriorityV2VAttack.node[2].veinsmobility posy ETV
vector 12 PriorityV2VAttack.node[2].veinsmobility speed ETV
vector 13 PriorityV2VAttack.node[2].veinsmobility acceleration ETV
vector 14 PriorityV2VAttack.node[2].veinsmobility co2emission ETV
vector 15 PriorityV2VAttack.node[3].veinsmobility posx ETV
vector 16 PriorityV2VAttack.node[3].veinsmobility posy ETV
vector 17 PriorityV2VAttack.node[3].veinsmobility speed ETV
vector 18 PriorityV2VAttack.node[3].veinsmobility acceleration ETV
vector 19 PriorityV2VAttack.node[3].veinsmobility co2emission ETV
vector 20 PriorityV2VAttack.node[4].veinsmobility posx ETV
vector 21 PriorityV2VAttack.node[4].veinsmobility posy ETV
vector 22 PriorityV2VAttack.node[4].veinsmobility speed ETV
vector 23 PriorityV2VAttack.node[4].veinsmobility acceleration ETV
vector 24 PriorityV2VAttack.node[4].veinsmobility co2emission ETV
vector 25 PriorityV2VAttack.node[5].veinsmobility posx ETV
vector 26 PriorityV2VAttack.node[5].veinsmobility posy ETV
vector 27 PriorityV2VAttack.node[5].veinsmobility speed ETV
vector 28 PriorityV2VAttack.node[5].veinsmobility acceleration ETV
vector 29 PriorityV2VAttack.node[5].veinsmobility co2emission ETV
vector 30 PriorityV2VAttack.node[6].veinsmobility posx ETV
vector 31 PriorityV2VAttack.node[6].veinsmobility posy ETV
vector 32 PriorityV2VAttack.node[6].veinsmobility speed ETV
vector 33 PriorityV2VAttack.node[6].veinsmobility acceleration ETV
vector 34 PriorityV2VAttack.node[6].veinsmobility co2emission ETV
vector 35 PriorityV2VAttack.node[7].veinsmobility posx ETV
vector 36 PriorityV2VAttack.node[7].veinsmobility posy ETV
vector 37 PriorityV2VAttack.node[7].veinsmobility speed ETV
vector 38 PriorityV2VAttack.node[7].veinsmobility acceleration ETV
vector 39 PriorityV2VAttack.node[7].veinsmobility co2emission ETV
vector 40 PriorityV2VAttack.node[8].veinsmobility posx ETV
vector 41 PriorityV2VAttack.node[8].veinsmobility posy ETV
vector 42 PriorityV2VAttack.node[8].veinsmobility speed ETV
vector 43 PriorityV2VAttack.node[8].veinsmobility acceleration ETV
vector 44 PriorityV2VAttack.node[8].veinsmobility co2emission ETV
vector 45 PriorityV2VAttack.node[9].veinsmobility posx ETV
vector 46 PriorityV2VAttack.node[9].veinsmobility posy ETV
vector 47 PriorityV2VAttack.node[9].veinsmobility speed ETV
vector 48 PriorityV2VAttack.node[9].veinsmobility acceleration ETV
vector 49 PriorityV2VAttack.node[9].veinsmobility co2emission ETV
vector 50 PriorityV2VAttack.node[10].veinsmobility posx ETV
vector 51 PriorityV2VAttack.node[10].veinsmobility posy ETV
vector 52 PriorityV2VAttack.node[10].veinsmobility speed ETV
vector 53 PriorityV2VAttack.node[10].veinsmobility acceleration ETV
vector 54 PriorityV2VAttack.node[10].veinsmobility co2emission ETV
vector 55 PriorityV2VAttack.node[11].veinsmobility posx ETV
vector 56 PriorityV2VAttack.node[11].veinsmobility posy ETV
vector 57 PriorityV2VAttack.node[6].nic.mac1609_4 droppedPacketStat:vector ETV
attr source org_car2x_veins_modules_mac_sigDroppedPacket
vector 58 PriorityV2VAttack.node[7].nic.mac1609_4 droppedPacketStat:vector ETV
attr source org_car2x_veins_modules_mac_sigDroppedPacket
vector 59 PriorityV2VAttack.node[1].nic.mac1609_4 droppedPacketStat:vector ETV
attr source org_car2x_veins_modules_mac_sigDroppedPacket
vector 60 PriorityV2VAttack.node[8].nic.mac1609_4 droppedPacketStat:vector ETV
attr source org_car2x_veins_modules_mac_sigDroppedPacket
vector 61 PriorityV2VAttack.node[0].nic.mac1609_4 droppedPacketStat:vector ETV
attr source org_car2x_veins_modules_mac_sigDroppedPacket
vector 62 PriorityV2VAttack.node[11].veinsmobility speed ETV
vector 63 PriorityV2VAttack.node[11].veinsmobility acceleration ETV
vector 64 PriorityV2VAttack.node[11].veinsmobility co2emission ETV
vector 65 PriorityV2VAttack.node[12].veinsmobility posx ETV
vector 66 PriorityV2VAttack.node[12].veinsmobility posy ETV
vector 67 PriorityV2VAttack.node[9].nic.mac1609_4 droppedPacketStat:vector ETV
attr source org_car2x_veins_modules_mac_sigDroppedPacket
vector 68 PriorityV2VAttack.node[2].nic.mac1609_4 droppedPacketStat:vector ETV
attr source org_car2x_veins_modules_mac_sigDroppedPacket
vector 69 PriorityV2VAttack.node[12].veinsmobility speed ETV
vector 70 PriorityV2VAttack.node[12].veinsmobility acceleration ETV
vector 71 PriorityV2VAttack.node[12].veinsmobility co2emission ETV
vector 72 PriorityV2VAttack.node[13].veinsmobility posx ETV
vector 73 PriorityV2VAttack.node[13].veinsmobility posy ETV
vector 74 PriorityV2VAttack.node[13].veinsmobility speed ETV
vector 75 PriorityV2VAttack.node[11].nic.mac1609_4 droppedPacketStat:vector ETV
attr source org_car2x_veins_modules_mac_sigDroppedPacket
vector 76 PriorityV2VAttack.node[13].veinsmobility acceleration ETV
vector 77 PriorityV2VAttack.node[13].veinsmobility co2emission ETV
vector 78 PriorityV2VAttack.node[3].nic.mac1609_4 droppedPacketStat:vector ETV
attr source org_car2x_veins_modules_mac_sigDroppedPacket
vector 79 PriorityV2VAttack.node[10].nic.mac1609_4 droppedPacketStat:vector ETV
attr source org_car2x_veins_modules_mac_sigDroppedPacket
vector 80 PriorityV2VAttack.node[14].veinsmobility posx ETV
vector 81 PriorityV2VAttack.node[14].veinsmobility posy ETV
vector 82 PriorityV2VAttack.node[4].nic.mac1609_4 droppedPacketStat:vector ETV
attr source org_car2x_veins_modules_mac_sigDroppedPacket
vector 83 PriorityV2VAttack.node[14].veinsmobility speed ETV
vector 84 PriorityV2VAttack.node[14].veinsmobility acceleration ETV
vector 85 PriorityV2VAttack.node[14].veinsmobility co2emission ETV
vector 86 PriorityV2VAttack.node[15].veinsmobility posx ETV
vector 87 PriorityV2VAttack.node[15].veinsmobility posy ETV
vector 88 PriorityV2VAttack.node[12].nic.mac1609_4 droppedPacketStat:vector ETV
attr source org_car2x_veins_modules_mac_sigDroppedPacket
vector 89 PriorityV2VAttack.node[5].nic.mac1609_4 droppedPacketStat:vector ETV
attr source org_car2x_veins_modules_mac_sigDroppedPacket
vector 90 PriorityV2VAttack.node[15].veinsmobility speed ETV
vector 91 PriorityV2VAttack.node[13].nic.mac1609_4 droppedPacketStat:vector ETV
attr source org_car2x_veins_modules_mac_sigDroppedPacket
vector 92 PriorityV2VAttack.node[15].veinsmobility acceleration ETV
vector 93 PriorityV2VAttack.node[15].veinsmobility co2emission ETV
vector 94 PriorityV2VAttack.node[16].veinsmobility posx ETV
vector 95 PriorityV2VAttack.node[16].veinsmobility posy ETV
vector 96 PriorityV2VAttack.node[15].nic.mac1609_4 droppedPacketStat:vector ETV
attr source org_car2x_veins_modules_mac_sigDroppedPacket
vector 97 PriorityV2VAttack.node[16].veinsmobility speed ETV
vector 98 PriorityV2VAttack.node[16].nic.mac1609_4 droppedPacketStat:vector ETV
attr source org_car2x_veins_modules_mac_sigDroppedPacket
vector 99 PriorityV2VAttack.node[16].veinsmobility acceleration ETV
vector 100 PriorityV2VAttack.node[16].veinsmobility co2emission ETV
vector 101 PriorityV2VAttack.node[17].veinsmobility posx ETV
vector 102 PriorityV2VAttack.node[17].veinsmobility posy ETV
vector 103 PriorityV2VAttack.node[17].nic.mac1609_4 droppedPacketStat:vector ETV
attr source org_car2x_veins_modules_mac_sigDroppedPacket
vector 104 PriorityV2VAttack.node[17].veinsmobility speed ETV
vector 105 PriorityV2VAttack.node[17].veinsmobility acceleration ETV
vector 106 PriorityV2VAttack.node[17].veinsmobility co2emission ETV
vector 107 PriorityV2VAttack.node[14].nic.mac1609_4 droppedPacketStat:vector ETV
attr source org_car2x_veins_modules_mac_sigDroppedPacket
vector 108 PriorityV2VAttack.node[18].veinsmobility posx ETV
vector 109 PriorityV2VAttack.node[18].veinsmobility posy ETV
vector 110 PriorityV2VAttack.node[18].nic.mac1609_4 droppedPacketStat:vector ETV
attr source org_car2x_veins_modules_mac_sigDroppedPacket
vector 111 PriorityV2VAttack.node[18].veinsmobility speed ETV
vector 112 PriorityV2VAttack.attacker[19].veinsmobility posx ETV
vector 113 PriorityV2VAttack.attacker[19].veinsmobility posy ETV
vector 114 PriorityV2VAttack.node[18].veinsmobility acceleration ETV
vector 115 PriorityV2VAttack.node[18].veinsmobility co2emission ETV
vector 116 PriorityV2VAttack.attacker[19].nic.mac1609_4 droppedPacketStat:vector ETV
attr source org_car2x_veins_modules_mac_sigDroppedPacket
vector 117 PriorityV2VAttack.node[20].veinsmobility posx ETV
vector 118 PriorityV2VAttack.node[20].veinsmobility posy ETV
vector 119 PriorityV2VAttack.attacker[19].veinsmobility speed ETV
vector 120 PriorityV2VAttack.node[20].nic.mac1609_4 droppedPacketStat:vector ETV
attr source org_car2x_veins_modules_mac_sigDroppedPacket
vector 121 PriorityV2VAttack.attacker[19].veinsmobility acceleration ETV
vector 122 PriorityV2VAttack.attacker[19].veinsmobility co2emission ETV
vector 123 PriorityV2VAttack.node[20].veinsmobility speed ETV
vector 124 PriorityV2VAttack.node[20].veinsmobility acceleration ETV
vector 125 PriorityV2VAttack.node[20].veinsmobility co2emission ETV
vector 126 PriorityV2VAttack.node[21].veinsmobility posx ETV
vector 127 PriorityV2VAttack.node[21].veinsmobility posy ETV
vector 128 PriorityV2VAttack.node[21].nic.mac1609_4 droppedPacketStat:vector ETV
attr source org_car2x_veins_modules_mac_sigDroppedPacket
vector 129 PriorityV2VAttack.node[21].veinsmobility speed ETV
vector 130 PriorityV2VAttack.node[21].veinsmobility acceleration ETV
vector 131 PriorityV2VAttack.node[21].veinsmobility co2emission ETV
vector 132 PriorityV2VAttack.node[22].veinsmobility posx ETV
vector 133 PriorityV2VAttack.node[22].veinsmobility posy ETV
vector 134 PriorityV2VAttack.node[22].nic.mac1609_4 droppedPacketStat:vector ETV
attr source org_car2x_veins_modules_mac_sigDroppedPacket
vector 135 PriorityV2VAttack.node[22].veinsmobility speed ETV
vector 136 PriorityV2VAttack.node[22].veinsmobility acceleration ETV
vector 137 PriorityV2VAttack.node[22].veinsmobility co2emission ETV
vector 138 PriorityV2VAttack.node[23].veinsmobility posx ETV
vector 139 PriorityV2VAttack.node[23].veinsmobility posy ETV
vector 140 PriorityV2VAttack.node[23].veinsmobility speed ETV
vector 141 PriorityV2VAttack.node[23].nic.mac1609_4 droppedPacketStat:vector ETV
attr source org_car2x_veins_modules_mac_sigDroppedPacket
vector 142 PriorityV2VAttack.node[23].veinsmobility acceleration ETV
vector 143 PriorityV2VAttack.node[23].veinsmobility co2emission ETV
vector 144 PriorityV2VAttack.node[24].veinsmobility posx ETV
vector 145 PriorityV2VAttack.node[24].veinsmobility posy ETV
vector 146 PriorityV2VAttack.node[24].veinsmobility speed ETV
vector 147 PriorityV2VAttack.node[24].veinsmobility acceleration ETV
vector 148 PriorityV2VAttack.node[24].veinsmobility co2emission ETV
vector 149 PriorityV2VAttack.node[25].veinsmobility posx ETV
vector 150 PriorityV2VAttack.node[25].veinsmobility posy ETV
vector 151 PriorityV2VAttack.node[25].veinsmobility speed ETV
vector 152 PriorityV2VAttack.node[25].nic.mac1609_4 droppedPacketStat:vector ETV
attr source org_car2x_veins_modules_mac_sigDroppedPacket
vector 153 PriorityV2VAttack.node[25].veinsmobility acceleration ETV
vector 154 PriorityV2VAttack.node[25].veinsmobility co2emission ETV
vector 155 PriorityV2VAttack.node[24].nic.mac1609_4 droppedPacketStat:vector ETV
attr source org_car2x_veins_modules_mac_sigDroppedPacket
vector 156 PriorityV2VAttack.node[26].veinsmobility posx ETV
vector 157 PriorityV2VAttack.node[26].veinsmobility posy ETV
vector 158 PriorityV2VAttack.node[26].nic.mac1609_4 droppedPacketStat:vector ETV
attr source org_car2x_veins_modules_mac_sigDroppedPacket
vector 159 PriorityV2VAttack.node[26].veinsmobility speed ETV
vector 160 PriorityV2VAttack.node[26].veinsmobility acceleration ETV
vector 161 PriorityV2VAttack.node[26].veinsmobility co2emission ETV
vector 162 PriorityV2VAttack.node[27].veinsmobility posx ETV
vector 163 PriorityV2VAttack.node[27].veinsmobility posy ETV
vector 164 PriorityV2VAttack.node[27].veinsmobility speed ETV
vector 165 PriorityV2VAttack.node[27].nic.mac1609_4 droppedPacketStat:vector ETV
attr source org_car2x_veins_modules_mac_sigDroppedPacket
vector 166 PriorityV2VAttack.node[27].veinsmobility acceleration ETV
vector 167 PriorityV2VAttack.node[27].veinsmobility co2emission ETV
vector 168 PriorityV2VAttack.node[28].veinsmobility posx ETV
vector 169 PriorityV2VAttack.node[28].veinsmobility posy ETV
116	41753	57.142882716423	1
116	41976	57.433995363643	1
116	44204	58.4339966239	1
116	45489	58.669385702856	1
116	162952	59.433996408108	1
116	206181	59.622684258646	1
116	216719	59.66948688524	1
116	487564	60.669467675458	1
116	605790	61.080913774836	1
116	701351	61.320589344021	1
116	738461	61.473721781753	1
116	786217	61.669520109159	1
116	1000913	62.320706803311	1
116	1218841	63.110623107663	1
116	1296788	63.320579707505	1
116	1363454	63.602881365021	1
116	1714460	64.793624598049	1
116	4005245	72.635172279445	1
116	4531296	74.473724227283	1
116	6468096	81.473723358999	1
116	6482684	81.542329003017	1
116	6781834	82.728152211341	1
122	46106	59	3.6336971294599
122	292835	60	4.5973138600042
122	563591	61	5.5881569004026
122	865687	62	6.7122734222448
122	1161351	63	9.0861460661315
122	1456949	64	5.291176276372
122	1765236	65	2.1128832135052
122	2068354	66	1.923922059384
122	2369398	67	2.0543365234991
122	2674814	68	1.7444294842255
122	2971274	69	2.1918152388739
122	3252068	70	2.1221573752423
122	3528890	71	1.9359100705535
122	3807850	72	2.0468970513967
122	4084393	73	2.070822150522
122	4366557	74	1.8815413777025
122	4648050	75	2.0026799214206
122	4928843	76	1.9603788367458
122	5215427	77	2.0784163551185
122	5493095	78	2.3637934188281
122	5762833	79	1.9394474855453
122	6036659	80	1.8668985001732
122	6311865	81	1.9469494949028
122	6576354	82	2.1035766880283
121	46106	59	1.8590114020463
121	292835	60	1.8692974762409
121	563591	61	1.8792656755564
121	865687	62	1.921800710666
121	1161351	63	2.27876291906
121	1456949	64	0.96625775152015
121	1765236	65	0.021986080107744
121	2068354	66	-0.033097851336933
121	2369398	67	0.0054814810538666
121	2674814	68	-0.08451131673297
121	2971274	69	0.047559759032447
121	3252068	70	0.025977965900674
121	3528890	71	-0.02857177047059
121	3807850	72	0.0043511677882631
121	4084393	73	0.011127649389673
121	4366557	74	-0.043989594876766
121	4648050	75	-0.0076085484726356
121	4928843	76	-0.019670929950662
121	5215427	77	0.01514982565539
121	5493095	78	0.09677048998652
121	5762833	79	-0.028308004424908
121	6036659	80	-0.04856865748763
121	6311865	81	-0.024003298263997
121	6576354	82	0.022090257119853
119	43681	58	3.2022692176314
119	46106	59	5.0612806196777
119	292835	60	6.9305780959186
119	563591	61	8.809843771475
119	865687	62	10.731644482141
119	1161351	63	13.010407401201
119	1456949	64	13.976665152721
119	1765236	65	13.998651232829
119	2068354	66	13.965553381492
119	2369398	67	13.971034862546
119	2674814	68	13.886523545813
119	2971274	69	13.934083304845
119	3252068	70	13.960061270746
119	3528890	71	13.931489500275
119	3807850	72	13.935840668064
119	4084393	73	13.946968317453
119	4366557	74	13.902978722577
119	4648050	75	13.895370174104
119	4928843	76	13.875699244153
119	5215427	77	13.890849069809
119	5493095	78	13.987619559795
119	5762833	79	13.95931155537
119	6036659	80	13.910742897883
119	6311865	81	13.886739599619
119	6576354	82	13.908829856738
113	41471	57	2096.5428579878
113	43681	58	2098.8263788261
113	46106	59	2102.7143017519
113	292835	60	2107.9742971482
113	563591	61	2113.5998034216
113	865687	62	2118.2726896349
113	1161351	63	2120.8874943638
113	1456949	64	2120.4219438694
113	1765236	65	2119.9508174583
113	2068354	66	2119.480217603
113	2369398	67	2119.0097941747
113	2674814	68	2118.539839183
113	2971274	69	2118.0694633108
113	3252068	70	2117.5992042916
113	3528890	71	2117.1288108565
113	3807850	72	2116.6582699995
113	4084393	73	2116.1876148926
113	4366557	74	2115.7175189815
113	4648050	75	2114.4487757524
113	4928843	76	2112.4948226968
113	5215427	77	2109.8713799668
113	5493095	78	2105.393690276
113	5762833	79	2100.9177860999
113	6036659	80	2095.4032039372
113	6311865	81	2088.3340156395
113	6576354	82	2081.2704481687
112	41471	57	2437.5485173609
112	43681	58	2437.1176643725
112	46106	59	2435.6934833403
112	292835	60	2432.5283755178
112	563591	61	2427.0406188398
112	865687	62	2418.3621897527
112	1161351	63	2406.8472599952
112	1456949	64	2393.063731182
112	1765236	65	2379.1151164967
112	2068354	66	2365.1820915535
112	2369398	67	2351.2542900491
112	2674814	68	2337.3403575179
112	2971274	69	2323.4139640131
112	3252068	70	2309.491030172
112	3528890	71	2295.5641166774
112	3807850	72	2281.6328384575
112	4084393	73	2267.6981776705
112	4366557	74	2253.7800729502
112	4648050	75	2239.9269749556
112	4928843	76	2226.1480852781
112	5215427	77	2212.5253325063
112	5493095	78	2199.3227841193
112	5762833	79	2186.125500355
112	6036659	80	2173.4111242555
112	6311865	81	2161.4026684979
112	6576354	82	2149.4037608582
vector 170 PriorityV2VAttack.node[28].veinsmobility speed ETV
vector 171 PriorityV2VAttack.node[28].veinsmobility acceleration ETV
vector 172 PriorityV2VAttack.node[28].veinsmobility co2emission ETV
vector 173 PriorityV2VAttack.node[28].nic.mac1609_4 droppedPacketStat:vector ETV
attr source org_car2x_veins_modules_mac_sigDroppedPacket
vector 174 PriorityV2VAttack.node[29].veinsmobility posx ETV
vector 175 PriorityV2VAttack.node[29].veinsmobility posy ETV
vector 176 PriorityV2VAttack.node[29].nic.mac1609_4 droppedPacketStat:vector ETV
attr source org_car2x_veins_modules_mac_sigDroppedPacket
vector 177 PriorityV2VAttack.node[29].veinsmobility speed ETV
vector 178 PriorityV2VAttack.node[29].veinsmobility acceleration ETV
vector 179 PriorityV2VAttack.node[29].veinsmobility co2emission ETV
vector 180 PriorityV2VAttack.node[30].veinsmobility posx ETV
vector 181 PriorityV2VAttack.node[30].veinsmobility posy ETV
vector 182 PriorityV2VAttack.node[30].veinsmobility speed ETV
vector 183 PriorityV2VAttack.node[30].nic.mac1609_4 droppedPacketStat:vector ETV
attr source org_car2x_veins_modules_mac_sigDroppedPacket
vector 184 PriorityV2VAttack.node[30].veinsmobility acceleration ETV
vector 185 PriorityV2VAttack.node[30].veinsmobility co2emission ETV
vector 186 PriorityV2VAttack.node[31].veinsmobility posx ETV
vector 187 PriorityV2VAttack.node[31].veinsmobility posy ETV
vector 188 PriorityV2VAttack.node[31].nic.mac1609_4 droppedPacketStat:vector ETV
attr source org_car2x_veins_modules_mac_sigDroppedPacket
vector 189 PriorityV2VAttack.node[31].veinsmobility speed ETV
vector 190 PriorityV2VAttack.node[31].veinsmobility acceleration ETV
vector 191 PriorityV2VAttack.node[31].veinsmobility co2emission ETV
vector 192 PriorityV2VAttack.node[32].veinsmobility posx ETV
vector 193 PriorityV2VAttack.node[32].veinsmobility posy ETV
vector 194 PriorityV2VAttack.node[32].nic.mac1609_4 droppedPacketStat:vector ETV
attr source org_car2x_veins_modules_mac_sigDroppedPacket
vector 195 PriorityV2VAttack.node[32].veinsmobility speed ETV
vector 196 PriorityV2VAttack.node[32].veinsmobility acceleration ETV
vector 197 PriorityV2VAttack.node[32].veinsmobility co2emission ETV
vector 198 PriorityV2VAttack.node[33].veinsmobility posx ETV
vector 199 PriorityV2VAttack.node[33].veinsmobility posy ETV
vector 200 PriorityV2VAttack.node[33].nic.mac1609_4 droppedPacketStat:vector ETV
attr source org_car2x_veins_modules_mac_sigDroppedPacket
vector 201 PriorityV2VAttack.node[33].veinsmobility speed ETV
vector 202 PriorityV2VAttack.node[33].veinsmobility acceleration ETV
vector 203 PriorityV2VAttack.node[33].veinsmobility co2emission ETV
vector 204 PriorityV2VAttack.node[34].veinsmobility posx ETV
vector 205 PriorityV2VAttack.node[34].veinsmobility posy ETV
vector 206 PriorityV2VAttack.node[34].nic.mac1609_4 droppedPacketStat:vector ETV
attr source org_car2x_veins_modules_mac_sigDroppedPacket
vector 207 PriorityV2VAttack.node[34].veinsmobility speed ETV
vector 208 PriorityV2VAttack.node[34].veinsmobility acceleration ETV
vector 209 PriorityV2VAttack.node[34].veinsmobility co2emission ETV
vector 210 PriorityV2VAttack.node[35].veinsmobility posx ETV
vector 211 PriorityV2VAttack.node[35].veinsmobility posy ETV
vector 212 PriorityV2VAttack.node[35].nic.mac1609_4 droppedPacketStat:vector ETV
attr source org_car2x_veins_modules_mac_sigDroppedPacket
vector 213 PriorityV2VAttack.node[35].veinsmobility speed ETV
vector 214 PriorityV2VAttack.node[35].veinsmobility acceleration ETV
vector 215 PriorityV2VAttack.node[35].veinsmobility co2emission ETV
vector 216 PriorityV2VAttack.node[36].veinsmobility posx ETV
vector 217 PriorityV2VAttack.node[36].veinsmobility posy ETV
vector 218 PriorityV2VAttack.node[36].nic.mac1609_4 droppedPacketStat:vector ETV
attr source org_car2x_veins_modules_mac_sigDroppedPacket
vector 219 PriorityV2VAttack.node[36].veinsmobility speed ETV
vector 220 PriorityV2VAttack.node[36].veinsmobility acceleration ETV
vector 221 PriorityV2VAttack.node[36].veinsmobility co2emission ETV
vector 222 PriorityV2VAttack.node[37].veinsmobility posx ETV
vector 223 PriorityV2VAttack.node[37].veinsmobility posy ETV
vector 224 PriorityV2VAttack.node[37].nic.mac1609_4 droppedPacketStat:vector ETV
attr source org_car2x_veins_modules_mac_sigDroppedPacket
vector 225 PriorityV2VAttack.node[37].veinsmobility speed ETV
vector 226 PriorityV2VAttack.node[37].veinsmobility acceleration ETV
vector 227 PriorityV2VAttack.node[37].veinsmobility co2emission ETV
vector 228 PriorityV2VAttack.node[38].veinsmobility posx ETV
vector 229 PriorityV2VAttack.node[38].veinsmobility posy ETV
vector 230 PriorityV2VAttack.node[38].veinsmobility speed ETV
vector 231 PriorityV2VAttack.node[38].nic.mac1609_4 droppedPacketStat:vector ETV
attr source org_car2x_veins_modules_mac_sigDroppedPacket
vector 232 PriorityV2VAttack.node[38].veinsmobility acceleration ETV
vector 233 PriorityV2VAttack.node[38].veinsmobility co2emission ETV
vector 234 PriorityV2VAttack.node[39].veinsmobility posx ETV
vector 235 PriorityV2VAttack.node[39].veinsmobility posy ETV
vector 236 PriorityV2VAttack.node[39].nic.mac1609_4 droppedPacketStat:vector ETV
attr source org_car2x_veins_modules_mac_sigDroppedPacket
vector 237 PriorityV2VAttack.node[39].veinsmobility speed ETV
vector 238 PriorityV2VAttack.node[39].veinsmobility acceleration ETV
vector 239 PriorityV2VAttack.node[39].veinsmobility co2emission ETV
vector 240 PriorityV2VAttack.node[40].veinsmobility posx ETV
vector 241 PriorityV2VAttack.node[40].veinsmobility posy ETV
vector 242 PriorityV2VAttack.node[40].nic.mac1609_4 droppedPacketStat:vector ETV
attr source org_car2x_veins_modules_mac_sigDroppedPacket
vector 243 PriorityV2VAttack.node[40].veinsmobility speed ETV
vector 244 PriorityV2VAttack.node[40].veinsmobility acceleration ETV
vector 245 PriorityV2VAttack.node[40].veinsmobility co2emission ETV
vector 246 PriorityV2VAttack.node[41].veinsmobility posx ETV
vector 247 PriorityV2VAttack.node[41].veinsmobility posy ETV
vector 248 PriorityV2VAttack.node[41].nic.mac1609_4 droppedPacketStat:vector ETV
attr source org_car2x_veins_modules_mac_sigDroppedPacket
vector 249 PriorityV2VAttack.node[41].veinsmobility speed ETV
vector 250 PriorityV2VAttack.node[41].veinsmobility acceleration ETV
vector 251 PriorityV2VAttack.node[41].veinsmobility co2emission ETV
vector 252 PriorityV2VAttack.node[42].veinsmobility posx ETV
vector 253 PriorityV2VAttack.node[42].veinsmobility posy ETV
vector 254 PriorityV2VAttack.node[42].nic.mac1609_4 droppedPacketStat:vector ETV
attr source org_car2x_veins_modules_mac_sigDroppedPacket
vector 255 PriorityV2VAttack.node[42].veinsmobility speed ETV
vector 256 PriorityV2VAttack.node[42].veinsmobility acceleration ETV
vector 257 PriorityV2VAttack.node[42].veinsmobility co2emission ETV
vector 258 PriorityV2VAttack.node[43].veinsmobility posx ETV
vector 259 PriorityV2VAttack.node[43].veinsmobility posy ETV
vector 260 PriorityV2VAttack.node[43].nic.mac1609_4 droppedPacketStat:vector ETV
attr source org_car2x_veins_modules_mac_sigDroppedPacket
vector 261 PriorityV2VAttack.node[43].veinsmobility speed ETV
vector 262 PriorityV2VAttack.node[43].veinsmobility acceleration ETV
vector 263 PriorityV2VAttack.node[43].veinsmobility co2emission ETV
vector 264 PriorityV2VAttack.node[44].veinsmobility posx ETV
vector 265 PriorityV2VAttack.node[44].veinsmobility posy ETV
vector 266 PriorityV2VAttack.node[44].nic.mac1609_4 droppedPacketStat:vector ETV
attr source org_car2x_veins_modules_mac_sigDroppedPacket
vector 267 PriorityV2VAttack.node[44].veinsmobility speed ETV
vector 268 PriorityV2VAttack.node[44].veinsmobility acceleration ETV
vector 269 PriorityV2VAttack.node[44].veinsmobility co2emission ETV
vector 270 PriorityV2VAttack.node[45].veinsmobility posx ETV
vector 271 PriorityV2VAttack.node[45].veinsmobility posy ETV
vector 272 PriorityV2VAttack.node[45].nic.mac1609_4 droppedPacketStat:vector ETV
attr source org_car2x_veins_modules_mac_sigDroppedPacket
vector 273 PriorityV2VAttack.node[45].veinsmobility speed ETV
vector 274 PriorityV2VAttack.node[45].veinsmobility acceleration ETV
vector 275 PriorityV2VAttack.node[45].veinsmobility co2emission ETV
vector 276 PriorityV2VAttack.node[46].veinsmobility posx ETV
vector 277 PriorityV2VAttack.node[46].veinsmobility posy ETV
vector 278 PriorityV2VAttack.node[46].nic.mac1609_4 droppedPacketStat:vector ETV
attr source org_car2x_veins_modules_mac_sigDroppedPacket
vector 279 PriorityV2VAttack.node[46].veinsmobility speed ETV
vector 280 PriorityV2VAttack.node[46].veinsmobility acceleration ETV
vector 281 PriorityV2VAttack.node[46].veinsmobility co2emission ETV
vector 282 PriorityV2VAttack.node[47].veinsmobility posx ETV
vector 283 PriorityV2VAttack.node[47].veinsmobility posy ETV
vector 284 PriorityV2VAttack.node[47].nic.mac1609_4 droppedPacketStat:vector ETV
attr source org_car2x_veins_modules_mac_sigDroppedPacket
vector 285 PriorityV2VAttack.node[47].veinsmobility speed ETV
vector 286 PriorityV2VAttack.node[47].veinsmobility acceleration ETV
vector 287 PriorityV2VAttack.node[47].veinsmobility co2emission ETV
vector 288 PriorityV2VAttack.node[48].veinsmobility posx ETV
vector 289 PriorityV2VAttack.node[48].veinsmobility posy ETV
vector 290 PriorityV2VAttack.node[48].nic.mac1609_4 droppedPacketStat:vector ETV
attr source org_car2x_veins_modules_mac_sigDroppedPacket
vector 291 PriorityV2VAttack.node[48].veinsmobility speed ETV
vector 292 PriorityV2VAttack.node[48].veinsmobility acceleration ETV
vector 293 PriorityV2VAttack.node[48].veinsmobility co2emission ETV
vector 294 PriorityV2VAttack.node[49].veinsmobility posx ETV
vector 295 PriorityV2VAttack.node[49].veinsmobility posy ETV
vector 296 PriorityV2VAttack.node[49].nic.mac1609_4 droppedPacketStat:vector ETV
attr source org_car2x_veins_modules_mac_sigDroppedPacket
vector 297 PriorityV2VAttack.node[49].veinsmobility speed ETV
vector 298 PriorityV2VAttack.node[49].veinsmobility acceleration ETV
vector 299 PriorityV2VAttack.node[49].veinsmobility co2emission ETV
vector 300 PriorityV2VAttack.node[50].veinsmobility posx ETV
vector 301 PriorityV2VAttack.node[50].veinsmobility posy ETV
vector 302 PriorityV2VAttack.node[50].nic.mac1609_4 droppedPacketStat:vector ETV
attr source org_car2x_veins_modules_mac_sigDroppedPacket
vector 303 PriorityV2VAttack.node[50].veinsmobility speed ETV
vector 304 PriorityV2VAttack.node[50].veinsmobility acceleration ETV
vector 305 PriorityV2VAttack.node[50].veinsmobility co2emission ETV
vector 306 PriorityV2VAttack.node[51].veinsmobility posx ETV
vector 307 PriorityV2VAttack.node[51].veinsmobility posy ETV
vector 308 PriorityV2VAttack.node[51].nic.mac1609_4 droppedPacketStat:vector ETV
attr source org_car2x_veins_modules_mac_sigDroppedPacket
vector 309 PriorityV2VAttack.node[51].veinsmobility speed ETV
vector 310 PriorityV2VAttack.node[51].veinsmobility acceleration ETV
vector 311 PriorityV2VAttack.node[51].veinsmobility co2emission ETV
vector 312 PriorityV2VAttack.node[52].veinsmobility posx ETV
vector 313 PriorityV2VAttack.node[52].veinsmobility posy ETV
vector 314 PriorityV2VAttack.node[52].nic.mac1609_4 droppedPacketStat:vector ETV
attr source org_car2x_veins_modules_mac_sigDroppedPacket
vector 315 PriorityV2VAttack.node[52].veinsmobility speed ETV
vector 316 PriorityV2VAttack.node[52].veinsmobility acceleration ETV
vector 317 PriorityV2VAttack.node[52].veinsmobility co2emission ETV
vector 318 PriorityV2VAttack.node[53].veinsmobility posx ETV
vector 319 PriorityV2VAttack.node[53].veinsmobility posy ETV
vector 320 PriorityV2VAttack.node[53].nic.mac1609_4 droppedPacketStat:vector ETV
attr source org_car2x_veins_modules_mac_sigDroppedPacket
vector 321 PriorityV2VAttack.node[53].veinsmobility speed ETV
vector 322 PriorityV2VAttack.node[53].veinsmobility acceleration ETV
vector 323 PriorityV2VAttack.node[53].veinsmobility co2emission ETV
vector 324 PriorityV2VAttack.node[54].veinsmobility posx ETV
vector 325 PriorityV2VAttack.node[54].veinsmobility posy ETV
vector 326 PriorityV2VAttack.node[54].nic.mac1609_4 droppedPacketStat:vector ETV
attr source org_car2x_veins_modules_mac_sigDroppedPacket
vector 327 PriorityV2VAttack.node[54].veinsmobility speed ETV
vector 328 PriorityV2VAttack.node[54].veinsmobility acceleration ETV
vector 329 PriorityV2VAttack.node[54].veinsmobility co2emission ETV
vector 330 PriorityV2VAttack.node[55].veinsmobility posx ETV
vector 331 PriorityV2VAttack.node[55].veinsmobility posy ETV
vector 332 PriorityV2VAttack.node[55].nic.mac1609_4 droppedPacketStat:vector ETV
attr source org_car2x_veins_modules_mac_sigDroppedPacket
vector 333 PriorityV2VAttack.node[55].veinsmobility speed ETV
vector 334 PriorityV2VAttack.node[55].veinsmobility acceleration ETV
vector 335 PriorityV2VAttack.node[55].veinsmobility co2emission ETV
vector 336 PriorityV2VAttack.node[56].veinsmobility posx ETV
vector 337 PriorityV2VAttack.node[56].veinsmobility posy ETV
vector 338 PriorityV2VAttack.node[56].nic.mac1609_4 droppedPacketStat:vector ETV
attr source org_car2x_veins_modules_mac_sigDroppedPacket
vector 339 PriorityV2VAttack.node[56].veinsmobility speed ETV
vector 340 PriorityV2VAttack.node[56].veinsmobility acceleration ETV
vector 341 PriorityV2VAttack.node[56].veinsmobility co2emission ETV
vector 342 PriorityV2VAttack.node[57].veinsmobility posx ETV
vector 343 PriorityV2VAttack.node[57].veinsmobility posy ETV
vector 344 PriorityV2VAttack.node[57].nic.mac1609_4 droppedPacketStat:vector ETV
attr source org_car2x_veins_modules_mac_sigDroppedPacket
vector 345 PriorityV2VAttack.node[57].veinsmobility speed ETV
vector 346 PriorityV2VAttack.node[57].veinsmobility acceleration ETV
vector 347 PriorityV2VAttack.node[57].veinsmobility co2emission ETV
vector 348 PriorityV2VAttack.node[58].veinsmobility posx ETV
vector 349 PriorityV2VAttack.node[58].veinsmobility posy ETV
vector 350 PriorityV2VAttack.node[58].nic.mac1609_4 droppedPacketStat:vector ETV
attr source org_car2x_veins_modules_mac_sigDroppedPacket
vector 351 PriorityV2VAttack.node[58].veinsmobility speed ETV
vector 352 PriorityV2VAttack.node[58].veinsmobility acceleration ETV
vector 353 PriorityV2VAttack.node[58].veinsmobility co2emission ETV
vector 354 PriorityV2VAttack.node[59].veinsmobility posx ETV
vector 355 PriorityV2VAttack.node[59].veinsmobility posy ETV
vector 356 PriorityV2VAttack.node[59].nic.mac1609_4 droppedPacketStat:vector ETV
attr source org_car2x_veins_modules_mac_sigDroppedPacket
vector 357 PriorityV2VAttack.node[59].veinsmobility speed ETV
vector 358 PriorityV2VAttack.node[59].veinsmobility acceleration ETV
vector 359 PriorityV2VAttack.node[59].veinsmobility co2emission ETV
vector 360 PriorityV2VAttack.node[60].veinsmobility posx ETV
vector 361 PriorityV2VAttack.node[60].veinsmobility posy ETV
vector 362 PriorityV2VAttack.node[60].nic.mac1609_4 droppedPacketStat:vector ETV
attr source org_car2x_veins_modules_mac_sigDroppedPacket
vector 363 PriorityV2VAttack.node[60].veinsmobility speed ETV
vector 364 PriorityV2VAttack.node[60].veinsmobility acceleration ETV
vector 365 PriorityV2VAttack.node[60].veinsmobility co2emission ETV
vector 366 PriorityV2VAttack.node[61].veinsmobility posx ETV
vector 367 PriorityV2VAttack.node[61].veinsmobility posy ETV
vector 368 PriorityV2VAttack.node[61].nic.mac1609_4 droppedPacketStat:vector ETV
attr source org_car2x_veins_modules_mac_sigDroppedPacket
vector 369 PriorityV2VAttack.node[61].veinsmobility speed ETV
vector 370 PriorityV2VAttack.node[61].veinsmobility acceleration ETV
vector 371 PriorityV2VAttack.node[61].veinsmobility co2emission ETV
vector 372 PriorityV2VAttack.node[62].veinsmobility posx ETV
vector 373 PriorityV2VAttack.node[62].veinsmobility posy ETV
vector 374 PriorityV2VAttack.node[62].nic.mac1609_4 droppedPacketStat:vector ETV
attr source org_car2x_veins_modules_mac_sigDroppedPacket
vector 375 PriorityV2VAttack.node[62].veinsmobility speed ETV
vector 376 PriorityV2VAttack.node[62].veinsmobility acceleration ETV
vector 377 PriorityV2VAttack.node[62].veinsmobility co2emission ETV
vector 378 PriorityV2VAttack.node[63].veinsmobility posx ETV
vector 379 PriorityV2VAttack.node[63].veinsmobility posy ETV
vector 380 PriorityV2VAttack.node[63].nic.mac1609_4 droppedPacketStat:vector ETV
attr source org_car2x_veins_modules_mac_sigDroppedPacket
vector 381 PriorityV2VAttack.node[63].veinsmobility speed ETV
vector 382 PriorityV2VAttack.node[63].veinsmobility acceleration ETV
vector 383 PriorityV2VAttack.node[63].veinsmobility co2emission ETV
vector 384 PriorityV2VAttack.node[64].veinsmobility posx ETV
vector 385 PriorityV2VAttack.node[64].veinsmobility posy ETV
vector 386 PriorityV2VAttack.node[64].nic.mac1609_4 droppedPacketStat:vector ETV
attr source org_car2x_veins_modules_mac_sigDroppedPacket
vector 387 PriorityV2VAttack.node[64].veinsmobility speed ETV
vector 388 PriorityV2VAttack.node[64].veinsmobility acceleration ETV
vector 389 PriorityV2VAttack.node[64].veinsmobility co2emission ETV
vector 390 PriorityV2VAttack.node[65].veinsmobility posx ETV
vector 391 PriorityV2VAttack.node[65].veinsmobility posy ETV
vector 392 PriorityV2VAttack.node[65].veinsmobility speed ETV
vector 393 PriorityV2VAttack.node[65].veinsmobility acceleration ETV
vector 394 PriorityV2VAttack.node[65].veinsmobility co2emission ETV
vector 395 PriorityV2VAttack.node[66].veinsmobility posx ETV
vector 396 PriorityV2VAttack.node[66].veinsmobility posy ETV
vector 397 PriorityV2VAttack.node[65].nic.mac1609_4 droppedPacketStat:vector ETV
attr source org_car2x_veins_modules_mac_sigDroppedPacket
vector 398 PriorityV2VAttack.node[66].nic.mac1609_4 droppedPacketStat:vector ETV
attr source org_car2x_veins_modules_mac_sigDroppedPacket
vector 399 PriorityV2VAttack.node[66].veinsmobility speed ETV
vector 400 PriorityV2VAttack.node[66].veinsmobility acceleration ETV
vector 401 PriorityV2VAttack.node[66].veinsmobility co2emission ETV
vector 402 PriorityV2VAttack.node[67].veinsmobility posx ETV
vector 403 PriorityV2VAttack.node[67].veinsmobility posy ETV
vector 404 PriorityV2VAttack.node[67].nic.mac1609_4 droppedPacketStat:vector ETV
attr source org_car2x_veins_modules_mac_sigDroppedPacket
vector 405 PriorityV2VAttack.node[67].veinsmobility speed ETV
0	2	1	2414.8476884116
0	12	2	2411.8243290941
0	22	3	2407.1592244543
0	32	4	2402.288200066
0	63	5	2396.1394374635
0	94	6	2388.6993875942
0	125	7	2379.889221533
0	189	8	2370.1207192459
0	253	9	2360.3141803208
0	317	10	2350.5099475634
0	426	11	2341.0010868867
0	535	12	2334.5620136983
0	644	13	2337.6803779466
0	810	14	2348.3497968862
0	976	15	2358.6961674725
0	1142	16	2371.6616533546
0	1377	17	2385.4706804305
0	1612	18	2399.3588350668
0	1847	19	2412.4541998667
0	2163	20	2421.4418196582
0	2479	21	2428.417609864
0	2795	22	2431.468930052
0	3204	23	2433.1513403206
0	3613	24	2435.1237040944
0	4022	25	2437.2173147583
0	4536	26	2438.6437980286
0	5050	27	2439.5078674615
0	5564	28	2440.5186714794
0	6195	29	2441.528845595
0	6826	30	2442.539632472
0	7457	31	2443.5506939057
0	8217	32	2444.5606970395
0	8969	33	2445.5715007629
0	9713	34	2446.5823459494
0	10592	35	2447.5916815052
0	11459	36	2448.6026816299
0	12318	37	2449.6128429011
0	13316	38	2450.6236572781
0	14308	39	2449.5877572735
0	15296	40	2448.4767626838
0	16455	41	2447.3639479618
0	17614	42	2446.2500146491
0	18763	43	2445.1392084901
0	20077	44	2444.0273363738
0	21395	45	2442.9135561478
0	22693	46	2441.8003354116
0	24168	47	2440.688766335
0	25627	48	2439.7181849551
0	27080	49	2438.7751389151
0	28718	50	2437.9127695272
0	30346	51	2432.8981813103
0	31968	52	2422.5621833525
0	33795	53	2409.4768471345
0	35616	54	2395.5560608325
0	37434	55	2381.6304534525
0	39462	56	2367.704120385
0	41471	57	2353.7909654913
0	43681	58	2339.8911027684
0	46106	59	2325.9444014182
0	292835	60	2311.9984397547
0	563591	61	2298.0629560157
0	865687	62	2284.1624367234
0	1161351	63	2270.2297144531
0	1456949	64	2256.3144344661
0	1765236	65	2242.4391436017
0	2068354	66	2228.6538894138
0	2369398	67	2214.9214383059
0	2674814	68	2201.7135808438
0	2971274	69	2188.5072655471
0	3252068	70	2175.5647843902
0	3528890	71	2163.5503735138
0	3807850	72	2152.2810637306
0	4084393	73	2144.5887051206
0	4366557	74	2138.2635977202
0	4648050	75	2131.5874349384
0	4928843	76	2123.6826602456
0	5215427	77	2114.4536504539
0	5493095	78	2104.9305043935
0	5762833	79	2095.3926695905
0	6036659	80	2085.8616714773
0	6311865	81	2076.3420117697
0	6576354	82	2066.8232231081
0	6836190	83	2057.2953852735
0	6839911	84	2047.7490207319
0	6843612	85	2037.7470630204
0	6847619	86	2027.7583770298
0	6851601	87	2017.7650833564
0	6855554	88	2007.7841867217
0	6859894	89	1997.7833553522
0	6864222	90	1987.7992408242
0	6868545	91	1977.819295212
0	6873172	92	1967.8280943267
0	6877763	93	1957.8246872866
0	6882270	94	1947.8325032329
0	6887109	95	1937.8316706659
0	6891941	96	1928.1007003819
0	6896760	97	1918.3690894475
0	6901930	98	1908.6329138415
0	6907047	99	1898.8980716255
0	6912145	100	1889.1623277469
0	6917578	101	1879.428695955
0	6922953	102	1869.6826437943
0	6928228	103	1859.9502110683
0	6933796	104	1850.2033725794
0	6939296	105	1840.4640899507
0	6944674	106	1830.4979997103
0	6950368	107	1820.4039463964
0	6955949	108	1810.2898087621
0	6961417	109	1800.3188843733
0	6967184	110	1790.3679471056
0	6972840	111	1780.4204781877
0	6978434	112	1770.4683888794
0	6984417	113	1760.5130686685
0	6990408	114	1750.5747224572
0	6996336	115	1740.6215736703
0	7002669	116	1730.6674320274
0	7009005	117	1720.7163174826
0	7015323	118	1710.7754760605
0	7022064	119	1700.8059774742
0	7028776	120	1690.8483497857
0	7035464	121	1680.9074256402
0	7042452	122	1670.9554368303
0	7049392	123	1660.9971094881
0	7056289	124	1651.0593747139
0	7063520	125	1641.1280734473
0	7070670	126	1631.1676356542
0	7077746	127	1621.2239541811
0	7085149	128	1611.4257260166
0	7092470	129	1601.6148653623
0	7099628	130	1591.7927645691
0	7107075	131	1581.9814693194
0	7114396	132	1572.1642532103
0	7121575	133	1562.34347582
0	7129039	134	1551.947947934
0	7136420	135	1541.3975833849
0	7143711	136	1530.845095026
0	7151336	137	1520.2915712632
0	7158905	138	1509.728632246
0	7166416	139	1498.7279541328
0	7174280	140	1487.3158830545
0	7181991	141	1475.9022730531
0	7189661	142	1464.5056606603
0	7197682	143	1453.0894078064
0	7205661	144	1440.926887084
0	7213612	145	1428.3186339787
0	7221929	146	1415.6889790031
0	7230194	147	1403.0399975294
0	7238422	148	1389.7668942681
0	7246951	149	1376.4571701371
0	7255468	150	1363.1765446934
0	7263887	151	1349.596608413
0	7272568	152	1335.8610687178
0	7281208	153	1322.2490942382
0	7289812	154	1308.5132167005
0	7298769	155	1294.7820073999
0	7307675	156	1281.0503223256
0	7316546	157	1267.2694575718
0	7325762	158	1253.4741900624
0	7334949	159	1239.6101810538
0	7344125	160	1225.7614449499
0	7353704	161	1211.8906246732
0	7363231	162	1198.0309158256
0	7372766	163	1184.1988259943
0	7382657	164	1170.3393754929
0	7392517	165	1156.4887161237
0	7402320	166	1142.6294862102
0	7412520	167	1128.7726701003
0	7422695	168	1114.9011299215
0	7432873	169	1100.990312329
0	7443407	170	1087.0859153785
0	7453926	171	1073.1738476856
0	7464424	172	1059.3093617744
0	7475305	173	1045.4341115308
0	7486172	174	1031.5425251569
0	7497003	175	1017.674499014
0	7508256	176	1003.8041570866
0	7519506	177	989.92382520938
0	7530743	178	976.05065828084
0	7542422	179	962.15986745327
0	7554077	180	948.27644068561
0	7565814	181	934.39882102655
0	7577923	182	920.52348120243
0	7590059	183	906.65667218377
0	7602127	184	892.78341476258
0	7614608	185	878.91308794147
0	7627033	186	865.02815199667
0	7639370	187	851.14778291469
0	7652172	188	837.26228737435
0	7664908	189	823.35133576056
0	7677633	190	809.48328152229
0	7690779	191	795.64045890875
0	7703856	192	781.83705097483
0	7716914	193	768.02676882793
0	7730300	194	753.55860899319
0	7743731	195	739.92502155679
0	7757090	196	726.34519234556
0	7770859	197	712.77528479067
0	7784656	198	699.19790227152
0	7798428	199	685.71666519728
0	7812597	200	672.27329510928
1	2	1	1578.4613427464
1	12	2	1579.5715045081
1	22	3	1581.5561876604
1	32	4	1586.4898643075
1	63	5	1592.7177137369
1	94	6	1600.2534592729
1	125	7	1609.1769437566
1	189	8	1619.0710908128
1	253	9	1629.0037637418
1	317	10	1638.9341008412
1	426	11	1649.1129276818
1	535	12	1661.0453354148
1	644	13	1673.5713017788
1	810	14	1682.4825292248
1	976	15	1691.8131453674
1	1142	16	1695.5671389326
1	1377	17	1697.3762977775
1	1612	18	1698.7149431584
1	1847	19	1699.9531973498
1	2163	20	1700.8030368192
1	2479	21	1701.4822415169
1	2795	22	1709.488976148
1	3204	23	1720.5600911779
1	3613	24	1733.5392477075
1	4022	25	1747.3162704222
1	4536	26	1761.1584832035
1	5050	27	1775.0761860982
1	5564	28	1788.9767346038
1	6195	29	1802.8686207114
1	6826	30	1816.7689334946
1	7457	31	1830.6730219759
1	8217	32	1844.5625567446
1	8969	33	1858.4631012026
1	9713	34	1872.3642158564
1	10592	35	1886.2445701128
1	11459	36	1900.1478154743
1	12318	37	1914.0395249445
1	13316	38	1927.940215908
1	14308	39	1941.8229822991
1	15296	40	1955.6896381965
1	16455	41	1969.5790117104
1	17614	42	1983.4823466875
1	18763	43	1997.3466507252
1	20077	44	2011.2242592955
1	21395	45	2025.1256835526
1	22693	46	2039.0201246524
1	24168	47	2052.8939508917
1	25627	48	2066.8011025051
1	27080	49	2080.7343486696
1	28718	50	2094.6123215063
1	30346	51	2107.3641791679
1	31968	52	2116.3952468438
1	33795	53	2120.927603568
1	35616	54	2120.5061244387
1	37434	55	2120.0357751185
1	39462	56	2119.5654012877
1	41471	57	2119.0954725612
1	43681	58	2118.6259927889
1	46106	59	2118.1549310023
1	292835	60	2117.6838941984
1	563591	61	2117.2132112961
1	865687	62	2116.7437093481
1	1161351	63	2116.273119716
1	1456949	64	2115.8031192133
1	1765236	65	2114.8050206834
1	2068354	66	2112.8501650915
1	2369398	67	2110.6840274893
1	2674814	68	2106.2045372073
1	2971274	69	2101.725569956
1	3252068	70	2096.6710296534
1	3528890	71	2089.5983356712
1	3807850	72	2082.9642709382
1	4084393	73	2078.4359008828
1	4366557	74	2074.2998131048
1	4648050	75	2067.3649551338
1	4928843	76	2058.9265993144
1	5215427	77	2049.0746210488
1	5493095	78	2038.9086519862
1	5762833	79	2028.7270026747
1	6036659	80	2018.5526515376
1	6311865	81	2008.3904041611
1	6576354	82	1998.2290866263
1	6836190	83	1988.0581090907
1	6839911	84	1977.8979764003
1	6843612	85	1968.1750840908
1	6847619	86	1958.4650932075
1	6851601	87	1948.7506232001
1	6855554	88	1939.048204341
1	6859894	89	1929.3264069473
1	6864222	90	1919.6208599778
1	6868545	91	1909.9193656063
1	6873172	92	1900.2069299957
1	6877763	93	1890.4826287962
1	6882270	94	1880.7692374485
1	6887109	95	1871.0474388916
1	6891941	96	1861.0837063296
1	6896760	97	1851.1113331253
1	6901930	98	1841.1342823189
1	6907047	99	1831.1585978903
1	6912145	100	1821.1819894928
1	6917578	101	1811.2075454351
1	6922953	102	1801.2203737255
1	6928228	103	1791.2471583989
1	6933796	104	1781.2591809072
1	6939296	105	1771.2789462097
1	6944674	106	1761.5261628721
1	6950368	107	1751.939385362
1	6955949	108	1742.333532867
1	6961417	109	1732.5957958279
1	6967184	110	1722.843752672
1	6972840	111	1713.0951085426
1	6978434	112	1703.3419363732
1	6984417	113	1693.5855978774
1	6990408	114	1683.845894115
1	6996336	115	1674.0916836429
1	7002669	116	1664.3365001595
1	7009005	117	1654.5842832699
1	7015323	118	1644.8421341693
1	7022064	119	1635.071900689
1	7028776	120	1625.3133008368
1	7035464	121	1615.5710706664
1	7042452	122	1605.8179969862
1	7049392	123	1596.0587114645
1	7056289	124	1586.3196069179
1	7063520	125	1576.5868072892
1	7070670	126	1566.8254534993
1	7077746	127	1557.0805211132
1	7085149	128	1547.3077339306
1	7092470	129	1537.4041235438
1	7099628	130	1527.4891667552
1	7107075	131	1517.5851176642
1	7114396	132	1507.6750917388
1	7121575	133	1497.7614708655
1	7129039	134	1488.4943292914
1	7136420	135	1479.3682072135
1	7143711	136	1470.2402480291
1	7151336	137	1461.1113932142
1	7158905	138	1451.9743941538
1	7166416	139	1443.4095634408
1	7174280	140	1435.3672387134
1	7181991	141	1427.3238294758
1	7189661	142	1419.2923988067
1	7197682	143	1411.2471270952
1	7205661	144	1404.4715912091
1	7213612	145	1398.5273080459
1	7221929	146	1392.5729347635
1	7230194	147	1386.6094498159
1	7238422	148	1382.2199918823
1	7246951	149	1377.9258759925
1	7255468	150	1373.6411482114
1	7263887	151	1370.8586125933
1	7272568	152	1368.6454506526
1	7281208	153	1366.2564258669
1	7289812	154	1363.935224805
1	7298769	155	1361.4922660803
1	7307675	156	1359.1689612558
1	7316546	157	1357.0831467025
1	7325762	158	1355.3176006889
1	7334949	159	1353.855515372
1	7344125	160	1352.3950407207
1	7353704	161	1350.9322370933
1	7363231	162	1349.4706052672
1	7372766	163	1348.0118861161
1	7382657	164	1346.5502815349
1	7392517	165	1345.0896040583
1	7402320	166	1343.6280227397
1	7412520	167	1342.1666959785
1	7422695	168	1340.8004203383
1	7432873	169	1339.8465357032
1	7443407	170	1338.8862197632
1	7453926	171	1337.7562975651
1	7464424	172	1336.5670412043
1	7475305	173	1335.3768615099
1	7486172	174	1334.1852805475
1	7497003	175	1332.995720515
1	7508256	176	1331.8059618417
1	7519506	177	1330.6153462585
1	7530743	178	1329.4253452653
1	7542422	179	1328.2338325428
1	7554077	180	1327.0429514889
1	7565814	181	1325.8525685519
1	7577923	182	1324.6623811731
1	7590059	183	1323.4930497753
1	7602127	184	1322.3836538503
1	7614608	185	1321.274492274
1	7627033	186	1320.1641624589
1	7639370	187	1319.0443204213
1	7652172	188	1318.2106383052
1	7664908	189	1317.487991468
1	7677633	190	1316.2891806103
1	7690779	191	1314.6411743779
1	7703856	192	1312.7575593591
1	7716914	193	1310.8730062852
1	7730300	194	1312.228446682
1	7743731	195	1309.3165009236
1	7757090	196	1306.1390549354
1	7770859	197	1302.9639304429
1	7784656	198	1299.7870569387
1	7798428	199	1296.3138732184
1	7812597	200	1292.5546531742
2	12	2	4.1061966058897
2	22	3	6.0195495591482
2	32	4	7.7148368984793
2	63	5	9.5879868385225
2	94	6	11.391389363371
2	125	7	13.513839789145
2	189	8	13.99235115225
2	253	9	13.890224446259
2	317	10	13.976677174468
2	426	11	13.994826577434
2	535	12	13.923680325528
2	644	13	13.923542996629
2	810	14	13.91007151508
2	976	15	13.964598868005
2	1142	16	13.995233640105
2	1377	17	13.952304350403
2	1612	18	13.956911946491
2	1847	19	11.503494614513
2	2163	20	7.0034946145128
2	2479	21	7.8970062485022
2	2795	22	10.10483181514
2	3204	23	11.990706169653
2	3613	24	13.981089308816
2	4022	25	13.965594365916
2	4536	26	13.989059597438
2	5050	27	13.93892747174
2	5564	28	13.993701183654
2	6195	29	13.885759201739
2	6826	30	13.932752099037
2	7457	31	13.983992603337
2	8217	32	13.890129161163
2	8969	33	13.945758553667
2	9713	34	13.924564808162
2	10592	35	13.955253256506
2	11459	36	13.971511321289
2	12318	37	13.928658014578
2	13316	38	13.957683203742
2	14308	39	13.909685057036
2	15296	40	13.996253738229
2	16455	41	13.999815066161
2	17614	42	13.902084701743
2	18763	43	13.878634490466
2	20077	44	13.872462027394
2	21395	45	13.944837658829
2	22693	46	13.919867154986
2	24168	47	13.910194873156
2	25627	48	13.996150752292
2	27080	49	13.981207501933
2	28718	50	13.891851522969
2	30346	51	13.930097484484
2	31968	52	13.948393711536
2	33795	53	13.882971800906
2	35616	54	13.87138918183
2	37434	55	13.933780807857
2	39462	56	13.942265776542
2	41471	57	13.944625044707
2	43681	58	13.901211000958
2	46106	59	13.889535437319
2	292835	60	13.983680299402
2	563591	61	13.973125579024
2	865687	62	13.904109570072
2	1161351	63	13.932968401979
2	1456949	64	13.954534002345
2	1765236	65	13.902721541785
2	2068354	66	13.925128551477
2	2369398	67	13.923595596936
2	2674814	68	13.990350087087
2	2971274	69	13.946136353342
2	3252068	70	13.880848547374
2	3528890	71	13.873358402713
2	3807850	72	11.392498963569
2	4084393	73	6.9022590334413
2	4366557	74	8.5164253701319
2	4648050	75	10.483873304979
2	4928843	76	12.557331098509
2	5215427	77	13.991704303646
2	5493095	78	13.937640864081
2	5762833	79	13.909840586104
2	6036659	80	13.9868867786
2	6311865	81	13.884608772129
2	6576354	82	13.932486002932
2	6836190	83	13.933768573357
2	6839911	84	13.905794141847
2	6843612	85	13.98817828268
2	6847619	86	13.967796034259
2	6851601	87	13.92936082036
2	6855554	88	13.889022653454
2	6859894	89	13.96838739505
2	6864222	90	13.872591278434
2	6868545	91	13.870003580733
2	6873172	92	13.957762695034
2	6877763	93	13.920815594839
2	6882270	94	13.951199041368
2	6887109	95	13.978555881397
2	6891941	96	13.936336233199
2	6896760	97	13.934993555129
2	6901930	98	13.924891995774
2	6907047	99	13.932084917249
2	6912145	100	13.986985983157
2	6917578	101	13.900793466019
2	6922953	102	13.996598818274
2	6928228	103	13.930725637402
2	6933796	104	13.975500264307
2	6939296	105	13.894506167276
2	6944674	106	13.914689087677
2	6950368	107	13.972062556965
2	6955949	108	13.917703868353
2	6961417	109	13.982933777843
2	6967184	110	13.965111266649
2	6972840	111	13.876817126267
2	6978434	112	13.966556464438
2	6984417	113	13.974978583108
2	6990408	114	13.938636550289
2	6996336	115	13.974425214932
2	7002669	116	13.926862362875
2	7009005	117	13.876724758793
2	7015323	118	13.889950936283
2	7022064	119	13.998293147539
2	7028776	120	13.984871024112
2	7035464	121	13.945821131815
2	7042452	122	13.988595255059
2	7049392	123	13.964110186596
2	7056289	124	13.910202819954
2	7063520	125	13.879832246762
2	7070670	126	13.950691929844
2	7077746	127	13.970130137289
2	7085149	128	13.929496678174
2	7092470	129	13.878089943773
2	7099628	130	13.993096217676
2	7107075	131	13.875779724845
2	7114396	132	13.913274697398
2	7121575	133	13.919895130382
2	7129039	134	13.88549514615
2	7136420	135	13.879287964974
2	7143711	136	13.94209516291
2	7151336	137	13.935209582935
2	7158905	138	13.96058773913
2	7166416	139	13.928988261374
2	7174280	140	13.982505610154
2	7181991	141	13.997650944768
2	7189661	142	13.908677199436
2	7197682	143	13.948675351946
2	7205661	144	13.946562061303
2	7213612	145	13.880639836157
2	7221929	146	13.945333202807
2	7230194	147	13.879452574104
2	7238422	148	13.994609436856
2	7246951	149	13.989116368371
2	7255468	150	13.909947179651
2	7263887	151	13.963378901547
2	7272568	152	13.90013743426
2	7281208	153	13.881279643248
2	7289812	154	13.966536763401
2	7298769	155	13.990584799319
2	7307675	156	13.944614902935
2	7316546	157	13.90994313936
2	7325762	158	13.974751957422
2	7334949	159	13.976185514266
2	7344125	160	13.998359918438
2	7353704	161	13.959418661566
2	7363231	162	13.990113809092
2	7372766	163	13.948902800528
2	7382657	164	13.900080059238
2	7392517	165	13.932041595592
2	7402320	166	13.92637393944
2	7412520	167	13.921132557108
2	7422695	168	13.944931330823
2	7432873	169	13.987475670008
2	7443407	170	13.880774960578
2	7453926	171	13.994187416655
2	7464424	172	13.979502878073
2	7475305	173	13.971636267495
2	7486172	174	13.95793872149
2	7497003	175	13.896624165105
2	7508256	176	13.997516584068
2	7519506	177	13.958810173364
2	7530743	178	13.994584853351
2	7542422	179	13.937199156948
2	7554077	180	13.975531172005
2	7565814	181	13.958391597297
2	7577923	182	13.943796972816
2	7590059	183	13.945384287355
2	7602127	184	13.936573621514
2	7614608	185	13.906400816785
2	7627033	186	13.949358371668
2	7639370	187	13.968923436471
2	7652172	188	13.945373411372
2	7664908	189	13.932034608289
2	7677633	190	13.960974337647
2	7690779	191	13.992788579096
2	7703856	192	13.874138010629
2	7716914	193	13.89025462592
2	7730300	194	13.89299565587
2	7743731	195	13.919382929872
2	7757090	196	13.91724806533
2	7770859	197	13.944629625464
2	7784656	198	13.942991133153
2	7798428	199	13.926412937951
2	7812597	200	13.928776678997
3	22	3	1.9133529532584
3	32	4	1.6952873393311
3	63	5	1.8731499400432
3	94	6	1.8034025248489
3	125	7	2.1224504257739
3	189	8	0.47851136310433
3	253	9	-0.1021267059911
3	317	10	0.086452728209551
3	426	11	0.018149402965792
3	535	12	-0.071146251906175
3	644	13	-0.0001373288989992
3	810	14	-0.013471481548622
3	976	15	0.054527352924923
3	1142	16	0.03063477210002
3	1377	17	-0.04292928970186
3	1612	18	0.0046075960877356
3	1847	19	-2.4534173319781
3	2163	20	-4.5
3	2479	21	0.8935116339894
3	2795	22	2.2078255666373
3	3204	23	1.8858743545134
3	3613	24	1.9903831391631
3	4022	25	-0.01549494290026
3	4536	26	0.023465231521987
3	5050	27	-0.050132125697564
3	5564	28	0.054773711913731
3	6195	29	-0.10794198191492
3	6826	30	0.046992897298187
3	7457	31	0.051240504300221
3	8217	32	-0.093863442174623
3	8969	33	0.055629392503761
3	9713	34	-0.021193745504135
3	10592	35	0.030688448343426
3	11459	36	0.016258064783178
3	12318	37	-0.042853306711185
3	13316	38	0.029025189164095
3	14308	39	-0.047998146705796
3	15296	40	0.086568681192585
3	16455	41	0.0035613279324025
3	17614	42	-0.097730364417657
3	18763	43	-0.023450211277231
3	20077	44	-0.0061724630719979
3	21395	45	0.072375631434841
3	22693	46	-0.024970503842923
3	24168	47	-0.0096722818305714
3	25627	48	0.085955879136455
3	27080	49	-0.014943250359503
3	28718	50	-0.089355978963431
3	30346	51	0.038245961514766
3	31968	52	0.018296227052343
3	33795	53	-0.065421910630539
3	35616	54	-0.011582619075197
3	37434	55	0.062391626026946
3	39462	56	0.0084849686850799
3	41471	57	0.002359268164728
3	43681	58	-0.043414043749216
3	46106	59	-0.011675563638565
3	292835	60	0.094144862082322
3	563591	61	-0.01055472037755
3	865687	62	-0.069016008952167
3	1161351	63	0.028858831906691
3	1456949	64	0.021565600365866
3	1765236	65	-0.051812460559885
3	2068354	66	0.022407009692397
3	2369398	67	-0.0015329545410356
3	2674814	68	0.066754490151069
3	2971274	69	-0.044213733745272
3	3252068	70	-0.065287805967966
3	3528890	71	-0.0074901446606965
3	3807850	72	-2.480859439144
3	4084393	73	-4.4902399301279
3	4366557	74	1.6141663366905
3	4648050	75	1.9674479348469
3	4928843	76	2.0734577935305
3	5215427	77	1.4343732051363
3	5493095	78	-0.054063439564779
3	5762833	79	-0.027800277976786
3	6036659	80	0.077046192495619
3	6311865	81	-0.1022780064703
3	6576354	82	0.04787723080255
3	6836190	83	0.0012825704249551
3	6839911	84	-0.027974431510083
3	6843612	85	0.082384140833748
3	6847619	86	-0.020382248421667
3	6851601	87	-0.038435213898774
3	6855554	88	-0.040338166905567
3	6859894	89	0.079364741595928
3	6864222	90	-0.095796116616111
3	6868545	91	-0.0025876977015287
3	6873172	92	0.087759114301297
3	6877763	93	-0.036947100195102
3	6882270	94	0.030383446528576
3	6887109	95	0.027356840029825
3	6891941	96	-0.042219648198225
3	6896760	97	-0.0013426780700687
3	6901930	98	-0.010101559355389
3	6907047	99	0.0071929214755073
3	6912145	100	0.054901065907906
3	6917578	101	-0.086192517138551
3	6922953	102	0.095805352255702
3	6928228	103	-0.065873180872295
3	6933796	104	0.044774626905564
3	6939296	105	-0.080994097031654
3	6944674	106	0.020182920400986
3	6950368	107	0.057373469287995
3	6955949	108	-0.054358688611538
3	6961417	109	0.065229909489863
3	6967184	110	-0.017822511193808
3	6972840	111	-0.088294140382205
3	6978434	112	0.089739338171203
3	6984417	113	0.0084221186698414
3	6990408	114	-0.036342032819521
3	6996336	115	0.035788664643187
3	7002669	116	-0.047562852057162
3	7009005	117	-0.050137604081538
3	7015323	118	0.01322617748985
3	7022064	119	0.1083422112558
3	7028776	120	-0.013422123426572
3	7035464	121	-0.039049892297479
3	7042452	122	0.042774123244453
3	7049392	123	-0.024485068463255
3	7056289	124	-0.053907366641797
3	7063520	125	-0.030370573191904
3	7070670	126	0.070859683081508
3	7077746	127	0.0194382074452
3	7085149	128	-0.040633459114469
3	7092470	129	-0.051406734401827
3	7099628	130	0.11500627390342
3	7107075	131	-0.11731649283087
3	7114396	132	0.037494972553104
3	7121575	133	0.0066204329836186
3	7129039	134	-0.034399984232149
3	7136420	135	-0.0062071811757054
3	7143711	136	0.062807197936344
3	7151336	137	-0.006885579975787
3	7158905	138	0.025378156194929
3	7166416	139	-0.031599477755371
3	7174280	140	0.053517348780296
3	7181991	141	0.015145334613043
3	7189661	142	-0.088973745331169
3	7197682	143	0.039998152509797
3	7205661	144	-0.0021132906433188
3	7213612	145	-0.065922225145624
3	7221929	146	0.064693366650026
3	7230194	147	-0.065880628703161
3	7238422	148	0.11515686275204
3	7246951	149	-0.0054930684855208
3	7255468	150	-0.079169188719241
3	7263887	151	0.053431721895468
3	7272568	152	-0.063241467287298
3	7281208	153	-0.018857791011689
3	7289812	154	0.085257120153402
3	7298769	155	0.024048035917803
3	7307675	156	-0.045969896384049
3	7316546	157	-0.034671763575171
3	7325762	158	0.064808818062302
3	7334949	159	0.0014335568435495
3	7344125	160	0.022174404172693
3	7353704	161	-0.038941256871913
3	7363231	162	0.030695147525986
3	7372766	163	-0.04121100856457
3	7382657	164	-0.048822741289623
3	7392517	165	0.03196153635392
3	7402320	166	-0.0056676561525091
3	7412520	167	-0.0052413823315884
3	7422695	168	0.023798773714807
3	7432873	169	0.042544339185115
3	7443407	170	-0.10670070942957
3	7453926	171	0.11341245607706
3	7464424	172	-0.014684538582804
3	7475305	173	-0.0078666105773308
3	7486172	174	-0.013697546005714
3	7497003	175	-0.06131455638446
3	7508256	176	0.1008924189629
3	7519506	177	-0.038706410704181
3	7530743	178	0.035774679987226
3	7542422	179	-0.057385696403216
3	7554077	180	0.038332015057094
3	7565814	181	-0.017139574708416
3	7577923	182	-0.014594624480234
3	7590059	183	0.0015873145381917
3	7602127	184	-0.0088106658402829
3	7614608	185	-0.03017280472908
3	7627033	186	0.042957554883323
3	7639370	187	0.0195650648023
3	7652172	188	-0.023550025098958
3	7664908	189	-0.013338803083171
3	7677633	190	0.028939729358536
3	7690779	191	0.031814241448883
3	7703856	192	-0.11865056846757
3	7716914	193	0.016116615291686
3	7730300	194	0.0027410299493926
3	7743731	195	0.026387274002191
3	7757090	196	-0.0021348645421675
3	7770859	197	0.027381560134234
3	7784656	198	-0.0016384923108852
3	7798428	199	-0.016578195202165
3	7812597	200	0.0023637410462847
4	22	3	4.1962556146115
4	32	4	4.6765885426193
4	63	5	5.9822455727343
4	94	6	6.7469998477461
4	125	7	8.9023657158011
4	189	8	3.651678681686
4	253	9	1.6857621818206
4	317	10	2.3276633668785
4	426	11	2.0995306276608
4	535	12	1.7923040941768
4	644	13	2.0305681317735
4	810	14	1.9844951865828
4	976	15	2.2187318873595
4	1142	16	2.1416854339172
4	1377	17	1.8896148890835
4	1612	18	2.0499339673421
4	1847	19	0.973
4	2163	20	0.973
4	2479	21	3.236958348016
4	2795	22	7.0694109561587
4	3204	23	7.2974163894139
4	3613	24	8.7433911631671
4	4022	25	1.9831721788576
4	4536	26	2.116835898497
4	5050	27	1.8641906496581
4	5564	28	2.2229251583987
4	6195	29	1.6659573636763
4	6826	30	2.1897607355242
4	7457	31	2.2098947282049
4	8217	32	1.7134162858001
4	8969	33	2.220262482963
4	9713	34	1.9600107466791
4	10592	35	2.1374781171468
4	11459	36	2.0906721157861
4	12318	37	1.8877003515894
4	13316	38	2.1321496077276
4	14308	39	1.8687156117374
4	15296	40	2.3304680610145
4	16455	41	2.0508444419824
4	17614	42	1.7014066358448
4	18763	43	1.9480224167653
4	20077	44	2.0051942568707
4	21395	45	2.2764352646729
4	22693	46	1.9468859370227
4	24168	47	1.9972436254254
4	25627	48	2.3283883276758
4	27080	49	1.986570831776
4	28718	50	1.7286432154925
4	30346	51	2.1600950203348
4	31968	52	2.0950692067684
4	33795	53	1.8080099866508
4	35616	54	1.9870007069688
4	37434	55	2.2415869227426
4	39462	56	2.0614496349521
4	41471	57	2.0411090259012
4	43681	58	1.8833083678017
4	46106	59	1.9884832302515
4	292835	60	2.354449439478
4	563591	61	2.0005509728446
4	865687	62	1.7977837530394
4	1161351	63	2.1288938687775
4	1456949	64	2.1067187558746
4	1765236	65	1.8553069725578
4	2068354	66	2.1063875713732
4	2369398	67	2.0258903509268
4	2674814	68	2.262932728219
4	2971274	69	1.8847315060405
4	3252068	70	1.8082762607161
4	3528890	71	2.000878333413
4	3807850	72	0.973
4	4084393	73	0.973
4	4366557	74	4.8909035037574
4	4648050	75	6.6931706123012
4	4928843	76	8.1736272853226
4	5215427	77	6.8747046222767
4	5493095	78	1.8508696851047
4	5762833	79	1.9364383963061
4	6036659	80	2.2972138031298
4	6311865	81	1.684823067126
4	6576354	82	2.1926999225795
4	6836190	83	2.0363789456198
4	6839911	84	1.9354697534215
4	6843612	85	2.3153651438392
4	6847619	86	1.9669373516203
4	6851601	87	1.902596217338
4	6855554	88	1.8924914948632
4	6859894	89	2.302781357902
4	6864222	90	1.7055689253675
4	6868545	91	2.0169309146366
4	6873172	92	2.3297286898665
4	6877763	93	1.9067964342377
4	6882270	94	2.1360083172061
4	6887109	95	2.1288107445349
4	6891941	96	1.8905327517991
4	6896760	97	2.0276878747833
4	6901930	98	1.9972666969559
4	6907047	99	2.0560514122556
4	6912145	100	2.2225776078021
4	6917578	101	1.7399584457899
4	6922953	102	2.3616675988662
4	6928228	103	1.8106051897429
4	6933796	104	2.1871425334377
4	6939296	105	1.7568565103294
4	6944674	106	2.0978086579759
4	6950368	107	2.2291772370488
4	6955949	108	1.8481055820428
4	6961417	109	2.2569159120006
4	6967184	110	1.9752909217392
4	6972840	111	1.7309896274047
4	6978434	112	2.3374792921863
4	6984417	113	2.0646493500052
4	6990408	114	1.9104883031949
4	6996336	115	2.156757634357
4	7002669	116	1.8717287458362
4	7009005	117	1.858588755953
4	7015323	118	2.0718823550562
4	7022064	119	2.4041746593667
4	7028776	120	1.9920596188634
4	7035464	121	1.9020580442488
4	7042452	122	2.1818808197796
4	7049392	123	1.9527709858126
4	7056289	124	1.8489525370382
4	7063520	125	1.9249884860074
4	7070670	126	2.2720386209811
4	7077746	127	2.1012322725512
4	7085149	128	1.8952292897908
4	7092470	129	1.8544662206567
4	7099628	130	2.4259796074968
4	7107075	131	1.633853726441
4	7114396	132	2.1557066895618
4	7121575	133	2.0528665696243
4	7129039	134	1.912038644498
4	7136420	135	2.0057614883071
4	7143711	136	2.2439569957465
4	7151336	137	2.0090946504482
4	7158905	138	2.120196442655
4	7166416	139	1.9255084514804
4	7174280	140	2.2173965281066
4	7181991	141	2.0896985367588
4	7189661	142	1.7312747672946
4	7197682	143	2.1680530812233
4	7205661	144	2.0262751557531
4	7213612	145	1.8061360510748
4	7221929	146	2.2506757699835
4	7230194	147	1.8061733875953
4	7238422	148	2.4266845615448
4	7246951	149	2.0192126891949
4	7255468	150	1.7642446806966
4	7263887	151	2.2149040884642
4	7272568	152	1.8167897782961
4	7281208	153	1.9636397273566
4	7289812	154	2.3223899945849
4	7298769	155	2.1189658857422
4	7307675	156	1.8786904715973
4	7316546	157	1.9134128997495
4	7325762	158	2.2545313149111
4	7334949	159	2.041236054439
4	7344125	160	2.1134871274209
4	7353704	161	1.9036851063429
4	7363231	162	2.1413264045017
4	7372766	163	1.8950788450201
4	7382657	164	1.8650863811811
4	7392517	165	2.1392105637573
4	7402320	166	2.0122955373724
4	7412520	167	2.013198385157
4	7422695	168	2.1131928376646
4	7432873	169	2.1809799612437
4	7443407	170	1.6697327297416
4	7453926	171	2.4207464012641
4	7464424	172	1.9872740217513
4	7475305	173	2.009453645548
4	7486172	174	1.9884640791529
4	7497003	175	1.8229391595762
4	7508256	176	2.3789436116768
4	7519506	177	1.9044186435818
4	7530743	178	2.1589494721561
4	7542422	179	1.8396713411021
4	7554077	180	2.1654466505666
4	7565814	181	1.976929994284
4	7577923	182	1.9840511922951
4	7590059	183	2.0385925904375
4	7602127	184	2.0027657907371
4	7614608	185	1.9281597209283
4	7627033	186	2.1780783503654
4	7639370	187	2.1015302135304
4	7652172	188	1.9541090247884
4	7664908	189	1.9871084558726
4	7677633	190	2.132221589328
4	7690779	191	2.1453942129283
4	7703856	192	1.6292726516763
4	7716914	193	2.0815901001522
4	7730300	194	2.0370952723661
4	7743731	195	2.1191228175185
4	7757090	196	2.0232267690783
4	7770859	197	2.1252008054669
4	7784656	198	2.0275077178617
4	7798428	199	1.9756807955319
4	7812597	200	2.0394974073041
5	32	4	2414.8767583254
5	63	5	2411.8725636174
5	94	6	2407.2970525089
5	125	7	2402.4626210862
5	189	8	2396.3056860371
5	253	9	2388.8743536096
5	317	10	2380.097228827
5	426	11	2370.3507264333
5	535	12	2360.5878487076
5	644	13	2350.7849318213
5	810	14	2341.2418729237
5	976	15	2334.6305580324
5	1142	16	2337.3467480277
5	1377	17	2348.0519014368
5	1612	18	2358.3998493504
5	1847	19	2371.2788021446
5	2163	20	2385.0887639745
5	2479	21	2398.4985461925
5	2795	22	2411.2485283293
5	3204	23	2420.6905829484
5	3613	24	2427.6440450998
5	4022	25	2431.3031180431
5	4536	26	2432.9057471878
5	5050	27	2434.8184996871
5	5564	28	2436.9106889558
5	6195	29	2438.5031214217
5	6826	30	2439.3593195516
5	7457	31	2440.369415351
5	8217	32	2441.3809858783
5	8969	33	2442.3915292114
5	9713	34	2443.4025774666
5	10592	35	2444.4125131728
5	11459	36	2445.4237660761
5	12318	37	2446.4351718556
5	13316	38	2447.445188909
5	14308	39	2448.4548419161
5	15296	40	2449.4654486813
5	16455	41	2450.476915126
5	17614	42	2449.7481920538
5	18763	43	2448.6354602334
5	20077	44	2447.5233605381
5	21395	45	2446.4110956573
5	22693	46	2445.2987705469
5	24168	47	2444.1858201949
5	25627	48	2443.0726558273
5	27080	49	2441.958402227
5	28718	50	2440.8471951957
5	30346	51	2439.853141924
5	31968	52	2438.9126676621
5	33795	53	2438.2384050791
5	35616	54	2433.9338541407
5	37434	55	2424.2633578021
5	39462	56	2411.4006211698
5	41471	57	2397.5263366561
5	43681	58	2383.5991991319
5	46106	59	2369.6415879668
5	292835	60	2355.7230126082
5	563591	61	2341.7800897348
5	865687	62	2327.8493799239
5	1161351	63	2313.9061680939
5	1456949	64	2299.9611219736
5	1765236	65	2286.0198329303
5	2068354	66	2272.0780199043
5	2369398	67	2258.1553202658
5	2674814	68	2244.2930331923
5	2971274	69	2230.5030017378
5	3252068	70	2216.7095082502
5	3528890	71	2203.4749762727
5	3807850	72	2190.278848393
5	4084393	73	2177.1900107111
5	4366557	74	2165.2177132766
5	4648050	75	2153.7445848223
5	4928843	76	2145.4846776827
5	5215427	77	2139.4701723304
5	5493095	78	2133.0745223515
5	5762833	79	2125.6439100591
5	6036659	80	2116.7883024759
5	6311865	81	2107.2562247183
5	6576354	82	2097.7191442545
5	6836190	83	2088.20966158
5	6839911	84	2078.6770228322
5	6843612	85	2069.1472766056
5	6847619	86	2059.6265143615
5	6851601	87	2050.0881247354
5	6855554	88	2040.2129181731
5	6859894	89	2030.2142328317
5	6864222	90	2020.2315101647
5	6868545	91	2010.256468387
5	6873172	92	2000.2638172616
5	6877763	93	1990.2666327308
5	6882270	94	1980.2815316444
5	6887109	95	1970.3112187028
5	6891941	96	1960.3202991502
5	6896760	97	1950.320968344
5	6901930	98	1940.3192097204
5	6907047	99	1930.5307529944
5	6912145	100	1920.7876407084
5	6917578	101	1911.0613316834
5	6922953	102	1901.3249088428
5	6928228	103	1891.5834005693
5	6933796	104	1881.8454433145
5	6939296	105	1872.1094052895
5	6944674	106	1862.3778775644
5	6950368	107	1852.6495537497
5	6955949	108	1842.914382792
5	6961417	109	1833.0494208748
5	6967184	110	1822.9347896504
5	6972840	111	1812.8369890193
5	6978434	112	1802.8175347329
5	6984417	113	1792.8624114869
5	6990408	114	1782.9135613587
5	6996336	115	1772.9687925866
5	7002669	116	1763.0249732505
5	7009005	117	1753.0679511075
5	7015323	118	1743.1052337479
5	7022064	119	1733.1503867215
5	7028776	120	1723.1900776097
5	7035464	121	1713.244052526
5	7042452	122	1703.2937132234
5	7049392	123	1693.3309477486
5	7056289	124	1683.3763150782
5	7063520	125	1673.4193282695
5	7070670	126	1663.4584805429
5	7077746	127	1653.5024637608
5	7085149	128	1643.5547524911
5	7092470	129	1633.6066752226
5	7099628	130	1623.6645085004
5	7107075	131	1613.8417501702
5	7114396	132	1604.013780547
5	7121575	133	1594.1931063466
5	7129039	134	1584.3708113986
5	7136420	135	1574.550211575
5	7143711	136	1564.7259546154
5	7151336	137	1554.4980170038
5	7158905	138	1543.9416068937
5	7166416	139	1533.3821385803
5	7174280	140	1522.8272154502
5	7181991	141	1512.279819045
5	7189661	142	1501.474178453
5	7197682	143	1490.0830614709
5	7205661	144	1478.6762076383
5	7213612	145	1467.2672213796
5	7221929	146	1455.8741565987
5	7230194	147	1444.0299497389
5	7238422	148	1431.4079337142
5	7246951	149	1418.7861211564
5	7255468	150	1406.1448857147
5	7263887	151	1393.056090745
5	7272568	152	1379.7874898077
5	7281208	153	1366.4917195771
5	7289812	154	1353.0565842974
5	7298769	155	1339.2819934005
5	7307675	156	1325.6475681624
5	7316546	157	1311.9319322495
5	7325762	158	1298.2020584799
5	7334949	159	1284.4946292655
5	7344125	160	1270.7033416578
5	7353704	161	1256.9277303631
5	7363231	162	1243.0648728247
5	7372766	163	1229.2161692132
5	7382657	164	1215.3589482324
5	7392517	165	1201.5012091175
5	7402320	166	1187.647958964
5	7412520	167	1173.7783648371
5	7422695	168	1159.9287496841
5	7432873	169	1146.0754987767
5	7443407	170	1132.2027535279
5	7453926	171	1118.3129060761
5	7464424	172	1104.4156030496
5	7475305	173	1090.5079449343
5	7486172	174	1076.6051512775
5	7497003	175	1062.7097108202
5	7508256	176	1048.8438922535
5	7519506	177	1034.9717426429
5	7530743	178	1021.0900947169
5	7542422	179	1007.205821594
5	7554077	180	993.32502322039
5	7565814	181	979.45694473572
5	7577923	182	965.58298048959
5	7590059	183	951.69956320198
5	7602127	184	937.83349687897
5	7614608	185	923.96415680146
5	7627033	186	910.09363024239
5	7639370	187	896.22222074913
5	7652172	188	882.34142431384
5	7664908	189	868.45095773751
5	7677633	190	854.58310482127
5	7690779	191	840.681465753
5	7703856	192	826.76858000725
5	7716914	193	812.88615393057
5	7730300	194	799.01895826147
5	7743731	195	785.21935172612
5	7757090	196	771.41701312107
5	7770859	197	756.92857042269
5	7784656	198	743.240513489
5	7798428	199	729.68802193191
5	7812597	200	716.10338605836
6	32	4	1578.4506684253
6	63	5	1579.5537930429
6	94	6	1581.4165868293
6	125	7	1586.3131998433
6	189	8	1592.5493268352
6	253	9	1600.0762428036
6	317	10	1608.9662610246
6	426	11	1618.8381252186
6	535	12	1628.7265753681
6	644	13	1638.6555796713
6	810	14	1648.8046840783
6	976	15	1660.6325348346
6	1142	16	1673.301875555
6	1377	17	1682.2138796467
6	1612	18	1691.5459182626
6	1847	19	1695.5099147679
6	2163	20	1697.3308411958
6	2479	21	1698.6335971011
6	2795	22	1699.8391930545
6	3204	23	1700.7320023719
6	3613	24	1701.2941834759
6	4022	25	1708.3978488175
6	4536	26	1718.9439634858
6	5050	27	1731.5308475178
6	5564	28	1745.2985167308
6	6195	29	1759.1189484736
6	6826	30	1773.0333594084
6	7457	31	1786.9241685122
6	8217	32	1800.8352580341
6	8969	33	1814.732221609
6	9713	34	1828.6361288587
6	10592	35	1842.5247363681
6	11459	36	1856.4314579321
6	12318	37	1870.3402818451
6	13316	38	1884.2300080378
6	14308	39	1898.1147278752
6	15296	40	1912.0125637678
6	16455	41	1925.9222219465
6	17614	42	1939.8205478033
6	18763	43	1953.7088865945
6	20077	44	1967.5893356474
6	21395	45	1981.4718464278
6	22693	46	1995.3551089512
6	24168	47	2009.2461753041
6	25627	48	2023.1399128493
6	27080	49	2037.0472454326
6	28718	50	2050.9165528761
6	30346	51	2064.8071503658
6	31968	52	2078.7023992119
6	33795	53	2092.5996648818
6	35616	54	2105.6413772479
6	37434	55	2115.3634323617
6	39462	56	2120.4910908211
6	41471	57	2120.5726721929
6	43681	58	2120.1022711908
6	46106	59	2119.6308409153
6	292835	60	2119.1607291084
6	563591	61	2118.6897949427
6	865687	62	2118.2192732831
6	1161351	63	2117.7483293582
6	1456949	64	2117.2773234779
6	1765236	65	2116.8064444959
6	2068354	66	2116.3355478169
6	2369398	67	2115.8652967084
6	2674814	68	2115.0679165563
6	2971274	69	2113.1123835109
6	3252068	70	2111.1563595226
6	3528890	71	2106.8019205248
6	3807850	72	2102.3264083704
6	4084393	73	2097.6277747266
6	4366557	74	2090.5798722636
6	4648050	75	2083.825822697
6	4928843	76	2078.9633457838
6	5215427	77	2075.2632719353
6	5493095	78	2068.9524226086
6	5762833	79	2061.0202356828
6	6036659	80	2051.5668646907
6	6311865	81	2041.3913610317
6	6576354	82	2031.210516979
6	6836190	83	2021.0591335958
6	6839911	84	2010.8830310795
6	6843612	85	2000.7100163326
6	6847619	86	1990.5465919971
6	6851601	87	1980.3643504111
6	6855554	88	1970.5721392268
6	6859894	89	1960.8524279846
6	6864222	90	1951.1482340414
6	6868545	91	1941.4515066827
6	6873172	92	1931.7376612956
6	6877763	93	1922.0194089897
6	6882270	94	1912.3129029879
6	6887109	95	1902.6207725247
6	6891941	96	1892.9086103979
6	6896760	97	1883.1882717004
6	6901930	98	1873.4655729244
6	6907047	99	1863.5738789961
6	6912145	100	1853.5897198953
6	6917578	101	1843.6227797708
6	6922953	102	1833.645475613
6	6928228	103	1823.662960208
6	6933796	104	1813.6840836741
6	6939296	105	1803.7071738522
6	6944674	106	1793.7348859161
6	6950368	107	1783.7658811565
6	6955949	108	1773.7898598528
6	6961417	109	1763.9493625797
6	6967184	110	1754.3430412998
6	6972840	111	1744.7527047936
6	6978434	112	1735.0445044758
6	6984417	113	1725.2883590087
6	6990408	114	1715.5383612756
6	6996336	115	1705.7923633233
6	7002669	116	1696.0472958293
6	7009005	117	1686.2892894195
6	7015323	118	1676.5257016262
6	7022064	119	1666.7698268583
6	7028776	120	1657.0085991779
6	7035464	121	1647.2613700237
6	7042452	122	1637.5099128811
6	7049392	123	1627.7462779349
6	7056289	124	1617.990613238
6	7063520	125	1608.2326414557
6	7070670	126	1598.4708859269
6	7077746	127	1588.7138647828
6	7085149	128	1578.9649831457
6	7092470	129	1569.2157428246
6	7099628	130	1559.4722949136
6	7107075	131	1549.7465986488
6	7114396	132	1539.8257175479
6	7121575	133	1529.9122008393
6	7129039	134	1519.9970480613
6	7136420	135	1510.0836064331
6	7143711	136	1500.1664730944
6	7151336	137	1490.7001527511
6	7158905	138	1481.5688012308
6	7166416	139	1472.4348043483
6	7174280	140	1463.3047390739
6	7181991	141	1454.1811844558
6	7189661	142	1445.3448850494
6	7197682	143	1437.317327111
6	7205661	144	1429.2786790868
6	7213612	145	1421.2385282964
6	7221929	146	1413.209597704
6	7230194	147	1405.9345601825
6	7238422	148	1399.9837883571
6	7246951	149	1394.033112458
6	7255468	150	1388.0732794525
6	7263887	151	1383.2811852405
6	7272568	152	1379.0003369264
6	7281208	153	1374.7107229829
6	7289812	154	1371.1782236844
6	7298769	155	1369.2456128774
6	7307675	156	1366.8533800282
6	7316546	157	1364.4831891414
6	7325762	158	1362.1322609652
6	7334949	159	1359.7015879313
6	7344125	160	1357.6081345053
6	7353704	161	1355.6818077927
6	7363231	162	1354.2198439082
6	7372766	163	1352.7593726842
6	7382657	164	1351.2980032256
6	7392517	165	1349.8365791254
6	7402320	166	1348.3756284267
6	7412520	167	1346.9129541088
6	7422695	168	1345.4523867536
6	7432873	169	1343.9914359758
6	7443407	170	1342.5284293424
6	7453926	171	1341.0636191275
6	7464424	172	1340.081412781
6	7475305	173	1339.1277447958
6	7486172	174	1338.0506250756
6	7497003	175	1336.8587135216
6	7508256	176	1335.6693428494
6	7519506	177	1334.4794291174
6	7530743	178	1333.2887006477
6	7542422	179	1332.0977469962
6	7554077	180	1330.9070913978
6	7565814	181	1329.7175268764
6	7577923	182	1328.5274574906
6	7590059	183	1327.3365772497
6	7602127	184	1326.1471853256
6	7614608	185	1324.9575125882
6	7627033	186	1323.7678913027
6	7639370	187	1322.6586431498
6	7652172	188	1321.5486443564
6	7664908	189	1320.4378722748
6	7677633	190	1319.322060165
6	7690779	191	1318.3882579617
6	7703856	192	1317.6655106498
6	7716914	193	1316.6278259344
6	7730300	194	1315.1022048816
6	7743731	195	1313.219108603
6	7757090	196	1311.3356395056
6	7770859	197	1312.6879868768
6	7784656	198	1310.0922688935
6	7798428	199	1306.9212194448
6	7812597	200	1303.7426487803
7	63	5	4.0332649588119
7	94	6	5.8265110515686
7	125	7	7.7852127750962
7	189	8	9.5658873894228
7	253	9	11.450149483434
7	317	10	13.391487500134
7	426	11	13.949883621705
7	535	12	13.87602620427
7	644	13	13.885232782268
7	810	14	13.987373048679
7	976	15	13.890608048609
7	1142	16	13.887004709987
7	1377	17	13.926980708602
7	1612	18	13.89086526999
7	1847	19	13.965056618985
7	2163	20	13.946692067499
7	2479	21	13.097137451398
7	2795	22	11.939132677032
7	3204	23	7.4783001788439
7	3613	24	7.8592269216425
7	4022	25	9.5749213322898
7	4536	26	11.610942506126
7	5050	27	13.581243869506
7	5564	28	13.973211987913
7	6195	29	13.918392209036
7	6826	30	13.92941607638
7	7457	31	13.985277111761
7	8217	32	13.906023407809
7	8969	33	13.873081948087
7	9713	34	13.985133641064
7	10592	35	13.886848415199
7	11459	36	13.953301147325
7	12318	37	13.931210950045
7	13316	38	13.977433557366
7	14308	39	13.911500382989
7	15296	40	13.886547152873
7	16455	41	13.884234787642
7	17614	42	13.897895857247
7	18763	43	13.890769962375
7	20077	44	13.906696853526
7	21395	45	13.942197078511
7	22693	46	13.956891070239
7	24168	47	13.977998560918
7	25627	48	13.920730534329
7	27080	49	13.97224807204
7	28718	50	13.901960865888
7	30346	51	13.955488772776
7	31968	52	13.885362662035
7	33795	53	13.901131007429
7	35616	54	13.989670229855
7	37434	55	13.951804798429
7	39462	56	13.892850009208
7	41471	57	13.898094432745
7	43681	58	13.877731892413
7	46106	59	13.990908203099
7	292835	60	13.983421060841
7	563591	61	13.919312025001
7	865687	62	13.897749586278
7	1161351	63	13.961850514959
7	1456949	64	13.962242161995
7	1765236	65	13.940126294529
7	2068354	66	13.976873478838
7	2369398	67	13.874106407524
7	2674814	68	13.877533680827
7	2971274	69	13.96220104418
7	3252068	70	13.895542410433
7	3528890	71	13.966860863678
[...]
357	7565814	181	12.653880095638
357	7577923	182	12.613359111988
357	7590059	183	12.580809766639
357	7602127	184	12.60597332861
357	7614608	185	12.640130626026
357	7627033	186	12.610538323207
357	7639370	187	12.691395506738
357	7652172	188	12.648947727415
357	7664908	189	12.426628114128
357	7677633	190	11.718047235503
357	7690779	191	10.962626300043
357	7703856	192	9.8123982152549
357	7716914	193	9.1705242049113
357	7730300	194	8.929766926804
357	7743731	195	7.4482040949066
357	7757090	196	8.6685727990569
357	7770859	197	7.2132266200112
357	7784656	198	9.3445609818177
357	7798428	199	11.321543496967
357	7812597	200	13.24397403098
358	7519506	177	2.0781562213856
358	7530743	178	2.03028480137
358	7542422	179	1.90175568345
358	7554077	180	2.0229715068778
358	7565814	181	0.58882843714529
358	7577923	182	-0.04052098365035
358	7590059	183	-0.032549345348961
358	7602127	184	0.025163561971857
358	7614608	185	0.034157297415661
358	7627033	186	-0.029592302818784
358	7639370	187	0.080857183530462
358	7652172	188	-0.042447779322975
358	7664908	189	-0.22231961328698
358	7677633	190	-0.70858087862466
358	7690779	191	-0.75542093545975
358	7703856	192	-1.1502280847885
358	7716914	193	-0.64187401034368
358	7730300	194	-0.2407572781072
358	7743731	195	-1.4815628318974
358	7757090	196	1.2203687041503
358	7770859	197	-1.4553461790457
358	7784656	198	2.1313343618065
358	7798428	199	1.9769825151493
358	7812597	200	1.9224305340135
359	7519506	177	4.4859459502733
359	7530743	178	5.5355697182162
359	7542422	179	6.2904974394278
359	7554077	180	7.7364075876943
359	7565814	181	3.7032788800889
359	7577923	182	1.7806728603615
359	7590059	183	1.8021589005579
359	7602127	184	1.979615485277
359	7614608	185	2.0103761022652
359	7627033	186	1.8136537750939
359	7639370	187	2.1583878011798
359	7652172	188	1.7777420646492
359	7664908	189	1.2209228188579
359	7677633	190	0.973
359	7690779	191	0.973
359	7703856	192	0.973
359	7716914	193	0.973
359	7730300	194	0.973
359	7743731	195	0.973
359	7757090	196	4.1378509119456
359	7770859	197	0.973
359	7784656	198	6.436008977033
359	7798428	199	7.1843892363277
359	7812597	200	8.0994977241799
360	7530743	178	2414.8336314816
360	7542422	179	2411.7752411835
360	7554077	180	2407.03417426
360	7565814	181	2401.9258836866
360	7577923	182	2395.3975762917
360	7590059	183	2387.7257951001
360	7602127	184	2379.8500689116
360	7614608	185	2371.97820132
360	7627033	186	2364.1098582272
360	7639370	187	2356.2306014816
360	7652172	188	2348.3629770757
360	7664908	189	2340.7913800224
360	7677633	190	2334.9577262931
360	7690779	191	2334.4179237145
360	7703856	192	2342.3961398053
360	7716914	193	2350.8584407037
360	7730300	194	2359.1886544036
360	7743731	195	2369.6657009403
360	7757090	196	2380.7741972801
360	7770859	197	2391.9604889847
360	7784656	198	2403.120836771
360	7798428	199	2414.2369122199
360	7812597	200	2422.4703821694
361	7530743	178	1578.4665043773
361	7542422	179	1579.5895293327
361	7554077	180	1581.6828462798
361	7565814	181	1586.8568408843
361	7577923	182	1593.469116901
361	7590059	183	1601.239574342
361	7602127	184	1609.2165999683
361	7614608	185	1617.1897173682
361	7627033	186	1625.1592649361
361	7639370	187	1633.13986653
361	7652172	188	1641.1086861668
361	7664908	189	1649.3813851075
361	7677633	190	1658.6622006092
361	7690779	191	1669.711403802
361	7703856	192	1677.3795630736
361	7716914	193	1684.744887054
361	7730300	194	1692.2572824173
361	7743731	195	1695.2688070834
361	7757090	196	1696.8173114732
361	7770859	197	1698.0153801311
361	7784656	198	1699.070665542
361	7798428	199	1700.1217647074
361	7812597	200	1700.8885521973
362	7532231	178.163826014989	1
362	7533523	178.309924171141	1
362	7545201	179.309923079473	1
362	7556911	180.309921955696	1
362	7570604	181.463953070736	1
362	7582754	182.463951964723	1
362	7592307	183.268602113016	1
362	7638371	186.878436278429	1
362	7651690	187.976810353274	1
362	7663456	188.87233214804	1
362	7693067	191.263245404741	1
362	7734569	194.426915456247	1
362	7746019	195.263235963802	1
362	7746545	195.279776208991	1
362	7754792	195.823959492626	1
362	7759922	196.279779071468	1
362	7766609	196.739099610388	1
362	7782305	197.823966781222	1
362	7782754	197.85328099742	1
362	7784188	197.976811527277	1
362	7787734	198.307204696891	1
362	7796073	198.823970090817	1
362	7801519	199.307209770767	1
362	7810205	199.823971163123	1
363	7542422	179	4.2559510328259
363	7554077	180	6.2021385052369
363	7565814	181	8.1833457246643
363	7577923	182	10.19988962774
363	7590059	183	11.208953705903
363	7602127	184	11.245057872506
363	7614608	185	11.271461129275
363	7627033	186	11.25604914544
363	7639370	187	11.209546431872
363	7652172	188	11.204416298818
363	7664908	189	11.262415180198
363	7677633	190	11.175389139148
363	7690779	191	11.272192315287
363	7703856	192	11.224730258522
363	7716914	193	11.229705095541
363	7730300	194	11.269006350306
363	7743731	195	11.24105178319
363	7757090	196	11.274169162431
363	7770859	197	11.240924101242
363	7784656	198	11.239092721846
363	7798428	199	10.666956501824
363	7812597	200	6.2776164294369
364	7554077	180	1.946187472411
364	7565814	181	1.9812072194274
364	7577923	182	2.0165439030761
364	7590059	183	1.0090640781628
364	7602127	184	0.036104166603183
364	7614608	185	0.026403256768827
364	7627033	186	-0.015411983835511
364	7639370	187	-0.046502713568044
364	7652172	188	-0.0051301330537523
364	7664908	189	0.057998881379607
364	7677633	190	-0.087026041049976
364	7690779	191	0.096803176139947
364	7703856	192	-0.047462056765799
364	7716914	193	0.0049748370191089
364	7730300	194	0.039301254765595
364	7743731	195	-0.027954567116684
364	7757090	196	0.033117379241157
364	7770859	197	-0.033245061188936
364	7784656	198	-0.0018313793954441
364	7798428	199	-0.57213622002284
364	7812597	200	-4.3893400723867
365	7554077	180	4.3402267717566
365	7565814	181	5.462699413605
365	7577923	182	6.6570872828171
365	7590059	183	4.5066602793688
365	7602127	184	1.8816643895005
365	7614608	185	1.857743511712
365	7627033	186	1.7429275373576
365	7639370	187	1.6552392375042
365	7652172	188	1.7665875909396
365	7664908	189	1.9426895034787
365	7677633	190	1.5436482337602
365	7690779	191	2.0490574874983
365	7703856	192	1.6537358285979
365	7716914	193	1.7960057533577
365	7730300	194	1.8925518380747
365	7743731	195	1.7077548399398
365	7757090	196	1.8762295219078
365	7770859	197	1.6934127892766
365	7784656	198	1.7783627639407
365	7798428	199	0.973
365	7812597	200	0.973
366	7565814	181	2414.8869719487
366	7577923	182	2412.0891685437
366	7590059	183	2407.4832244107
366	7602127	184	2402.6316081821
366	7614608	185	2396.4217238476
366	7627033	186	2388.9759162796
366	7639370	187	2380.2930477532
366	7652172	188	2371.2873360493
366	7664908	189	2362.2957468384
366	7677633	190	2353.2848869817
366	7690779	191	2344.2809516137
366	7703856	192	2336.2374512658
366	7716914	193	2333.916369168
366	7730300	194	2341.960756039
366	7743731	195	2351.5887239383
366	7757090	196	2360.8398912055
366	7770859	197	2372.7968267174
366	7784656	198	2384.6083666623
366	7798428	199	2396.3133019907
366	7812597	200	2406.1606380916
367	7565814	181	1578.4469180359
367	7577923	182	1579.4742568452
367	7590059	183	1581.2280203402
367	7602127	184	1586.1420391956
367	7614608	185	1592.4317965191
367	7627033	186	1599.9733738108
367	7639370	187	1608.7679234296
367	7652172	188	1617.8894687099
367	7664908	189	1626.9967098506
367	7677633	190	1636.1234695008
367	7690779	191	1645.2432155982
367	7703856	192	1655.2111226991
367	7716914	193	1667.5912558651
367	7730300	194	1677.0279644988
367	7743731	195	1685.4034747668
367	7757090	196	1693.7464091238
367	7770859	197	1695.7368114991
367	7784656	198	1697.2736631949
367	7798428	199	1698.4269676683
367	7812597	200	1699.3580990564
368	7568692	181.309923588259	1
368	7570607	181.463953096323	1
368	7582757	182.463952008461	1
368	7592310	183.268602174407	1
368	7594902	183.463959475218	1
368	7602340	184.01892346194	1
368	7604417	184.268596605359	1
368	7607058	184.463953932058	1
368	7616884	185.268595491463	1
368	7664652	188.986598194996	1
368	7665971	189.098201087146	1
368	7677169	189.976806270928	1
368	7689314	190.87232979971	1
368	7700132	191.739094332968	1
368	7706156	192.263235861442	1
368	7706653	192.279776020247	1
368	7721182	193.42691463249	1
368	7773172	197.263235930278	1
368	7775180	197.426906631136	1
368	7794176	198.739101142281	1
368	7796069	198.823970034757	1
368	7801516	199.307209717557	1
368	7810202	199.82397110794	1
368	7811340	199.878437929862	1
369	7577923	182	3.7929458832696
369	7590059	183	5.8724947796834
369	7602127	184	7.7058304374388
369	7614608	185	9.6863647654468
369	7627033	186	11.416321079552
369	7639370	187	12.838535775356
369	7652172	188	12.775931897515
369	7664908	189	12.809338575056
369	7677633	190	12.813795178248
369	7690779	191	12.840986282604
369	7703856	192	12.821622975585
369	7716914	193	12.819883423834
369	7730300	194	12.84857585862
369	7743731	195	12.625642223011
369	7757090	196	12.334481723451
369	7770859	197	12.006549600035
369	7784656	198	11.857615315015
369	7798428	199	11.654832294357
369	7812597	200	8.5572923352658
370	7590059	183	2.0795488964138
370	7602127	184	1.8333356577554
370	7614608	185	1.9805343280081
370	7627033	186	1.7299563141051
370	7639370	187	1.4222146958037
370	7652172	188	-0.062603877841029
370	7664908	189	0.033406677541789
370	7677633	190	0.0044566031917928
370	7690779	191	0.027191104355733
370	7703856	192	-0.01936330701923
370	7716914	193	-0.0017395517509424
370	7730300	194	0.028692434786352
370	7743731	195	-0.22293363560906
370	7757090	196	-0.29116049955983
370	7770859	197	-0.32793212341656
370	7784656	198	-0.14893428502002
370	7798428	199	-0.20278302065772
370	7812597	200	-3.0975399590911
371	7590059	183	4.3551234681526
371	7602127	184	4.9286962074888
371	7614608	185	6.2846137774362
371	7627033	186	6.5578619305513
371	7639370	187	6.3252747246825
371	7652172	188	1.726195409371
371	7664908	189	2.0252074870474
371	7677633	190	1.9362596385835
371	7690779	191	2.009196426713
371	7703856	192	1.8633982847393
371	7716914	193	1.9176934555565
371	7730300	194	2.0146081909343
371	7743731	195	1.2266460270996
371	7757090	196	0.973
371	7770859	197	0.973
371	7784656	198	1.4104196652783
371	7798428	199	1.2488974881489
371	7812597	200	0.973
372	7602127	184	2414.8551852707
372	7614608	185	2411.8928572516
372	7627033	186	2407.2199654937
372	7639370	187	2402.2467412598
372	7652172	188	2395.9771393542
372	7664908	189	2388.3202471264
372	7677633	190	2379.3143988616
372	7690779	191	2369.9376381834
372	7703856	192	2360.5649267873
372	7716914	193	2351.183865039
372	7730300	194	2341.9647111557
372	7743731	195	2334.9206664417
372	7757090	196	2335.6271176197
372	7770859	197	2345.8468582807
372	7784656	198	2355.741818498
372	7798428	199	2367.1346957005
372	7812597	200	2380.1781358137
373	7602127	184	1578.4585899385
373	7614608	185	1579.546341327
373	7627033	186	1581.4946653554
373	7639370	187	1586.5318563664
373	7652172	188	1592.8820993621
373	7664908	189	1600.6374763343
373	7677633	190	1609.7591599328
373	7690779	191	1619.2565267067
373	7703856	192	1628.7497921158
373	7716914	193	1638.2515152805
373	7730300	194	1647.8793386379
373	7743731	195	1658.8853894155
373	7757090	196	1671.6807420524
373	7770859	197	1680.2253164984
373	7784656	198	1689.1488394635
373	7798428	199	1694.8905017339
373	7812597	200	1696.7463668566
374	7603174	184.098193931302	1
374	7604420	184.268596629261	1
374	7605486	184.342444374082	1
374	7607061	184.463953957886	1
374	7616887	185.268595532942	1
374	7617132	185.279774008798	1
374	7619546	185.463952905495	1
374	7629305	186.268597680518	1
374	7642822	187.342442053191	1
374	7655621	188.342446388725	1
374	7684454	190.597321794488	1
374	7703384	191.976815749158	1
374	7715474	192.872328317508	1
374	7726325	193.739091527833	1
374	7801512	199.307209633098	1
375	7614608	185	3.9643027338979
375	7627033	186	6.0227321062016
375	7639370	187	7.9011328707042
375	7652172	188	9.8495434551139
375	7664908	189	11.713924308839
375	7677633	190	13.336556788755
375	7690779	191	13.381397598181
375	7703856	192	13.278599163818
375	7716914	193	13.380366363074
375	7730300	194	13.365606793428
375	7743731	195	13.271254067784
375	7757090	196	13.372255800539
375	7770859	197	13.354571631283
375	7784656	198	13.290690937596
375	7798428	199	13.289190197936
375	7812597	200	12.553473782477
376	7627033	186	2.0584293723037
376	7639370	187	1.8784007645026
376	7652172	188	1.9484105844097
376	7664908	189	1.8643808537256
376	7677633	190	1.6226324799157
376	7690779	191	0.044840809425805
376	7703856	192	-0.10279843436321
376	7716914	193	0.10176719925599
376	7730300	194	-0.014759569645394
376	7743731	195	-0.09435272564413
376	7757090	196	0.10100173275452
376	7770859	197	-0.017684169255663
376	7784656	198	-0.063880693686659
376	7798428	199	-0.0015007396601145
376	7812597	200	-0.73571641545892
377	7627033	186	4.4084839408215
377	7639370	187	5.1135166973203
377	7652172	188	6.2984336628174
377	7664908	189	7.0868149075066
377	7677633	190	7.1878060954396
377	7690779	191	2.1214752730111
377	7703856	192	1.637876526918
377	7716914	193	2.3049319357253
377	7730300	194	1.9277807405501
377	7743731	195	1.664357970146
377	7757090	196	2.3014727066456
377	7770859	197	1.9173291015086
377	7784656	198	1.7634073937453
377	7798428	199	1.963068599996
377	7812597	200	0.973
378	7639370	187	2414.8702641105
378	7652172	188	2411.9341807713
378	7664908	189	2407.3346431596
378	7677633	190	2402.4955023477
378	7690779	191	2396.2337028445
378	7703856	192	2388.617701258
378	7716914	193	2379.5315396218
378	7730300	194	2369.9696770835
378	7743731	195	2360.415168183
378	7757090	196	2350.858384729
378	7770859	197	2341.5048706875
378	7784656	198	2334.7527693885
378	7798428	199	2336.5299108647
378	7812597	200	2347.025150875
379	7639370	187	1578.4530530674
379	7652172	188	1579.5311675463
379	7664908	189	1581.3785126787
379	7677633	190	1586.2798956549
379	7690779	191	1592.6222358923
379	7703856	192	1600.3361962782
379	7716914	193	1609.5392262572
379	7730300	194	1619.2240757141
379	7743731	195	1628.9014769504
379	7757090	196	1638.5811819946
379	7770859	197	1648.4680060074
379	7784656	198	1659.8965306235
379	7798428	199	1672.6422304241
379	7812597	200	1681.2879302735
380	7640445	187.098194348918	1
380	7641691	187.268597224046	1
380	7641946	187.279772598475	1
380	7653249	188.098197141225	1
380	7655625	188.342446430162	1
380	7668357	189.342450865321	1
380	7716662	192.986594313706	1
380	7727996	193.823961352631	1
380	7729064	193.878433852034	1
380	7753156	195.73909626339	1
380	7759399	196.263239018781	1
381	7652172	188	3.9763429005056
381	7664908	189	5.848355162538
381	7677633	190	7.8624514494425
381	7690779	191	9.7964631875636
381	7703856	192	11.739015889201
381	7716914	193	13.667736121664
381	7730300	194	13.538274338474
381	7743731	195	13.571786083421
381	7757090	196	13.656481304821
381	7770859	197	13.569957953415
381	7784656	198	13.631839803851
381	7798428	199	13.640937318435
381	7812597	200	13.572353462708
382	7664908	189	1.8720122620324
382	7677633	190	2.0140962869045
382	7690779	191	1.934011738121
382	7703856	192	1.9425527016376
382	7716914	193	1.9287202324624
382	7730300	194	-0.12946178318933
382	7743731	195	0.033511744947173
382	7757090	196	0.084695221399889
382	7770859	197	-0.086523351406214
382	7784656	198	0.061881850436331
382	7798428	199	0.0090975145832637
382	7812597	200	-0.068583855726757
383	7664908	189	4.0491178702271
383	7677633	190	5.3505966461798
383	7690779	191	6.2355339704786
383	7703856	192	7.3214117821811
383	7716914	193	8.3582546639874
383	7730300	194	1.5699136110099
383	7743731	195	2.1052449745534
383	7757090	196	2.2828208212203
383	7770859	197	1.7124907517654
383	7784656	198	2.2049096634387
383	7798428	199	2.0324263297917
383	7812597	200	1.7713575947235
384	7677633	190	2414.8508010724
384	7690779	191	2411.9084367992
384	7703856	192	2407.2392963679
384	7716914	193	2402.1479154518
384	7730300	194	2395.632481394
384	7743731	195	2387.6737717849
384	7757090	196	2378.360427147
384	7770859	197	2368.5746158336
384	7784656	198	2358.7860297406
384	7798428	199	2348.99573583
384	7812597	200	2339.68132197
385	7677633	190	1578.4601997929
385	7690779	191	1579.540620598
385	7703856	192	1581.4750858434
385	7716914	193	1586.6319532953
385	7730300	194	1593.2311903946
385	7743731	195	1601.2922667935
385	7757090	196	1610.7254018551
385	7770859	197	1620.6370805698
385	7784656	198	1630.5515697533
385	7798428	199	1640.4677887214
385	7812597	200	1650.8024321869
386	7680708	190.307204290766	1
386	7681351	190.342449660837	1
386	7694499	191.342442619293	1
386	7701610	191.823969811173	1
386	7706925	192.307200579038	1
386	7786978	198.263240484283	1
387	7690779	191	4.0010424112291
387	7703856	192	6.0015442033527
387	7716914	193	8.2219226935408
387	7730300	194	10.204648791202
387	7743731	195	12.161804024679
387	7757090	196	13.948325757734
387	7770859	197	13.892506072747
387	7784656	198	13.920893963794
387	7798428	199	13.977768345661
387	7812597	200	13.937570506728
388	7703856	192	2.0005017921235
388	7716914	193	2.2203784901882
388	7730300	194	1.9827260976611
388	7743731	195	1.9571552334772
388	7757090	196	1.7865217330544
388	7770859	197	-0.05581968498649
388	7784656	198	0.028387891047169
388	7798428	199	0.056874381867237
388	7812597	200	-0.040197838933674
389	7703856	192	4.3129538249771
389	7716914	193	5.9576129758212
389	7730300	194	6.5765982229107
389	7743731	195	7.5992725650847
389	7757090	196	8.0390342394294
389	7770859	197	1.8409783676152
389	7784656	198	2.1259984037863
389	7798428	199	2.2281589531847
389	7812597	200	1.8974373415613
390	7716914	193	2414.827880781
390	7730300	194	2411.7812214775
390	7743731	195	2407.0734643153
390	7757090	196	2401.9797134795
390	7770859	197	2395.6182120305
390	7784656	198	2387.9007547648
390	7798428	199	2378.8788586752
390	7812597	200	2369.1016335692
391	7716914	193	1578.4686160041
391	7730300	194	1579.5873334007
391	7743731	195	1581.6430508662
391	7757090	196	1586.8023187201
391	7770859	197	1593.2456432935
391	7784656	198	1601.0623643054
391	7798428	199	1610.2003021389
391	7812597	200	1620.1032842081
392	7730300	194	4.0963891555032
392	7743731	195	6.231236892856
392	7757090	196	7.9898347035155
392	7770859	197	9.8732597323822
392	7784656	198	11.781043307936
392	7798428	199	13.603983150261
392	7812597	200	13.89932602556
393	7743731	195	2.1348477373528
393	7757090	196	1.7585978106596
393	7770859	197	1.8834250288666
393	7784656	198	1.9077835755539
393	7798428	199	1.8229398423247
393	7812597	200	0.29534287529879
394	7743731	195	4.6389066091359
394	7757090	196	4.9288158443181
394	7770859	197	6.1567230446015
394	7784656	198	7.2460077523704
394	7798428	199	7.9754529266501
394	7812597	200	3.0178830022619
395	7757090	196	2414.873747339
395	7770859	197	2412.0088568291
395	7784656	198	2407.5655682283
395	7798428	199	2402.8576810701
395	7812597	200	2396.7587246678
396	7757090	196	1578.451774044
396	7770859	197	1579.5037468877
396	7784656	198	1581.1446173973
396	7798428	199	1585.9130585045
396	7812597	200	1592.0904611154
397	7763977	196.597312410761	1
397	7783420	197.878433870984	1
397	7784423	197.986595239907	1
397	7811112	199.872333727827	1
398	7763980	196.597312436267	1
398	7765582	196.678578002013	1
398	7772998	197.24159036739	1
398	7777762	197.59732258528	1
398	7779359	197.678575133047	1
398	7782767	197.853281384867	1
398	7784426	197.986595282059	1
398	7791548	198.597313921123	1
398	7797192	198.878437255374	1
398	7798204	198.98659861652	1
398	7810670	199.853285696514	1
398	7811349	199.87843830248	1
398	7812364	199.98659963619	1
399	7770859	197	3.8129964193388
399	7784656	198	5.6550626429229
399	7798428	199	7.6229945084372
399	7812597	200	9.5155542239978
400	7784656	198	1.8420662235841
400	7798428	199	1.9679318655143
400	7812597	200	1.8925597155606
401	7784656	198	3.9100036745225
401	7798428	199	5.1340242103973
401	7812597	200	5.9887332085942
402	7798428	199	2414.8772939658
402	7812597	200	2411.9660243392
403	7798428	199	1578.4504717411
403	7812597	200	1579.5194747541
404	7800570	199.241590903807	1
404	7805417	199.597318975149	1
404	7811352	199.878438325424	1
404	7812367	199.986599660228	1
405	7812597	200	4.0133306786479

