version 2
run WithBeaconing-0-20230724-01:39:49-25449
attr configname WithBeaconing
attr datetime 20230724-01:39:49
attr experiment WithBeaconing
attr inifile omnetpp_savs.ini
attr iterationvars ""
attr iterationvarsf ""
attr measurement ""
attr network SingleAttackerV2VScenario
attr processid 25449
attr repetition 0
attr replication #0
attr resultdir results
attr runnumber 0
attr seedset 0
param *.node[*].appl.sendBeacons true
param *.scenarioManager.script "xmldoc(\"scenario.xml\")"
param *.playgroundSizeX 2500m
param *.playgroundSizeY 2500m
param *.playgroundSizeZ 50m
param **.hasStatus true
param *.annotations.draw true
param *.obstacles.obstacles "xmldoc(\"config.xml\", \"//AnalogueModel[@type='SimpleObstacleShadowing']/obstacles\")"
param *.manager.updateInterval 1s
param *.manager.host "\"localhost\""
param *.manager.port 9999
param *.manager.autoShutdown true
param *.manager.launchConfig "xmldoc(\"erlangen.launchd.xml\")"
param *.connectionManager.sendDirect true
param *.connectionManager.maxInterfDist 2600m
param *.connectionManager.drawMaxIntfDist false
param *.**.nic.mac1609_4.useServiceChannel false
param *.**.nic.mac1609_4.txPower 20mW
param *.**.nic.mac1609_4.bitrate 6Mbps
param *.**.nic.phy80211p.minPowerLevel -110dBm
param *.**.nic.mac1609_4.useAcks true
param *.**.nic.phy80211p.useNoiseFloor true
param *.**.nic.phy80211p.noiseFloor -98dBm
param *.**.nic.phy80211p.decider "xmldoc(\"config.xml\")"
param *.**.nic.phy80211p.analogueModels "xmldoc(\"config.xml\")"
param *.**.nic.phy80211p.usePropagationDelay true
param *.**.nic.phy80211p.antenna "xmldoc(\"antenna.xml\", \"/root/Antenna[@id='monopole']\")"
param *.node[*].nic.phy80211p.antennaOffsetY "0 m"
param *.node[*].nic.phy80211p.antennaOffsetZ "1.895 m"
param *.attacker[*].nic.phy80211p.antennaOffsetY "0 m"
param *.attacker[*].nic.phy80211p.antennaOffsetZ "1.895 m"
param *.manager.moduleType "\"vtype1=org.car2x.veins.nodes.Car *=org.car2x.veins.nodes.Car\""
param *.manager.moduleName "\"vtype1=attacker *=node\""
param *.node[*].applType "\"TraCIDemo11p\""
param *.node[*].appl.headerLength "80 bit"
param *.node[*].appl.sendBeacons true
param *.node[*].appl.dataOnSch false
param *.node[*].appl.beaconInterval 1s
param *.attacker[*].applType "\"TraCIV2Vp\""
param *.attacker[*].appl.headerLength "80 bit"
param *.attacker[*].appl.sendBeacons true
param *.attacker[*].appl.dataOnSch false
param *.attacker[*].appl.beaconInterval 1s
param *.node[*].veinsmobility.x 0
param *.node[*].veinsmobility.y 0
param *.node[*].veinsmobility.z 0
param *.node[*].veinsmobility.setHostSpeed false
param *.attacker[*].veinsmobility.x 0
param *.attacker[*].veinsmobility.y 0
param *.attacker[*].veinsmobility.z 0
param *.attacker[*].veinsmobility.setHostSpeed false

scalar SingleAttackerV2VScenario.attacker[19].status nodeStatusData:count 0
attr source nodeStatusChanged
scalar SingleAttackerV2VScenario.attacker[19].appl generatedWSMs 690000
scalar SingleAttackerV2VScenario.attacker[19].appl receivedWSMs 12
scalar SingleAttackerV2VScenario.attacker[19].appl generatedBSMs 26
scalar SingleAttackerV2VScenario.attacker[19].appl receivedBSMs 219
scalar SingleAttackerV2VScenario.attacker[19].appl generatedWSAs 0
scalar SingleAttackerV2VScenario.attacker[19].appl receivedWSAs 0
scalar SingleAttackerV2VScenario.attacker[19].nic.phy80211p busyTime 0.0010270769230769
scalar SingleAttackerV2VScenario.attacker[19].nic.mac1609_4 ReceivedUnicastPackets 0
scalar SingleAttackerV2VScenario.attacker[19].nic.mac1609_4 ReceivedBroadcasts 231
scalar SingleAttackerV2VScenario.attacker[19].nic.mac1609_4 SentPackets 77153
scalar SingleAttackerV2VScenario.attacker[19].nic.mac1609_4 SentAcknowledgements 0
scalar SingleAttackerV2VScenario.attacker[19].nic.mac1609_4 RetriesExceeded 0
scalar SingleAttackerV2VScenario.attacker[19].nic.mac1609_4 SNIRLostPackets 11
scalar SingleAttackerV2VScenario.attacker[19].nic.mac1609_4 RXTXLostPackets 122
scalar SingleAttackerV2VScenario.attacker[19].nic.mac1609_4 TotalLostPackets 133
scalar SingleAttackerV2VScenario.attacker[19].nic.mac1609_4 DroppedPacketsInMac 0
scalar SingleAttackerV2VScenario.attacker[19].nic.mac1609_4 TooLittleTime 0
scalar SingleAttackerV2VScenario.attacker[19].nic.mac1609_4 TimesIntoBackoff 77152
scalar SingleAttackerV2VScenario.attacker[19].nic.mac1609_4 SlotsBackoff 115877
scalar SingleAttackerV2VScenario.attacker[19].nic.mac1609_4 NumInternalContention 0
scalar SingleAttackerV2VScenario.attacker[19].nic.mac1609_4 totalBusyTime 18.00248
scalar SingleAttackerV2VScenario.attacker[19].nic.mac1609_4 NodeDownCount 0
scalar SingleAttackerV2VScenario.attacker[19].nic.mac1609_4 retriesExceeded:count 0
attr source org_car2x_veins_modules_mac_sigRetriesExceeded
scalar SingleAttackerV2VScenario.attacker[19].nic.mac1609_4 sentAcks:count 0
attr source org_car2x_veins_modules_mac_sigSentAck
scalar SingleAttackerV2VScenario.attacker[19].nic.mac1609_4 sentPackets:count 77153
attr source org_car2x_veins_modules_mac_sigSentPacket
scalar SingleAttackerV2VScenario.attacker[19].nic.mac1609_4 collisions:count 0
attr source org_car2x_veins_modules_mac_sigCollision
scalar SingleAttackerV2VScenario.attacker[19].nic.mac1609_4 channelBusy:timeavg 0.69240401599906
attr source org_car2x_veins_modules_mac_sigChannelBusy
scalar SingleAttackerV2VScenario.attacker[19].veinsmobility startTime 57
scalar SingleAttackerV2VScenario.attacker[19].veinsmobility totalTime 25
scalar SingleAttackerV2VScenario.attacker[19].veinsmobility stopTime 83
scalar SingleAttackerV2VScenario.attacker[19].veinsmobility minSpeed 3.2022692176314
scalar SingleAttackerV2VScenario.attacker[19].veinsmobility maxSpeed 13.998651232829
scalar SingleAttackerV2VScenario.attacker[19].veinsmobility totalDistance 306.5760273435
scalar SingleAttackerV2VScenario.attacker[19].veinsmobility totalCO2Emission 71.255618900282
scalar SingleAttackerV2VScenario.manager roiArea 0
scalar SingleAttackerV2VScenario.nodeStatusTracker nodeStatusData:count 0
attr source nodeStatusChanged
scalar SingleAttackerV2VScenario.node[0].status nodeStatusData:count 0
attr source nodeStatusChanged
scalar SingleAttackerV2VScenario.node[0].appl generatedWSMs 1
scalar SingleAttackerV2VScenario.node[0].appl receivedWSMs 77100
scalar SingleAttackerV2VScenario.node[0].appl generatedBSMs 199
scalar SingleAttackerV2VScenario.node[0].appl receivedBSMs 912
scalar SingleAttackerV2VScenario.node[0].appl generatedWSAs 0
scalar SingleAttackerV2VScenario.node[0].appl receivedWSAs 0
scalar SingleAttackerV2VScenario.node[0].nic.phy80211p busyTime 0.090626693467399
scalar SingleAttackerV2VScenario.node[0].nic.mac1609_4 ReceivedUnicastPackets 0
scalar SingleAttackerV2VScenario.node[0].nic.mac1609_4 ReceivedBroadcasts 78012
scalar SingleAttackerV2VScenario.node[0].nic.mac1609_4 SentPackets 200
scalar SingleAttackerV2VScenario.node[0].nic.mac1609_4 SentAcknowledgements 0
scalar SingleAttackerV2VScenario.node[0].nic.mac1609_4 RetriesExceeded 0
scalar SingleAttackerV2VScenario.node[0].nic.mac1609_4 SNIRLostPackets 451
scalar SingleAttackerV2VScenario.node[0].nic.mac1609_4 RXTXLostPackets 14
scalar SingleAttackerV2VScenario.node[0].nic.mac1609_4 TotalLostPackets 465
scalar SingleAttackerV2VScenario.node[0].nic.mac1609_4 DroppedPacketsInMac 0
scalar SingleAttackerV2VScenario.node[0].nic.mac1609_4 TooLittleTime 0
scalar SingleAttackerV2VScenario.node[0].nic.mac1609_4 TimesIntoBackoff 218
scalar SingleAttackerV2VScenario.node[0].nic.mac1609_4 SlotsBackoff 348
scalar SingleAttackerV2VScenario.node[0].nic.mac1609_4 NumInternalContention 0
scalar SingleAttackerV2VScenario.node[0].nic.mac1609_4 totalBusyTime 18.047552
scalar SingleAttackerV2VScenario.node[0].nic.mac1609_4 NodeDownCount 0
scalar SingleAttackerV2VScenario.node[0].nic.mac1609_4 retriesExceeded:count 0
attr source org_car2x_veins_modules_mac_sigRetriesExceeded
scalar SingleAttackerV2VScenario.node[0].nic.mac1609_4 sentAcks:count 0
attr source org_car2x_veins_modules_mac_sigSentAck
scalar SingleAttackerV2VScenario.node[0].nic.mac1609_4 sentPackets:count 200
attr source org_car2x_veins_modules_mac_sigSentPacket
scalar SingleAttackerV2VScenario.node[0].nic.mac1609_4 collisions:count 0
attr source org_car2x_veins_modules_mac_sigCollision
scalar SingleAttackerV2VScenario.node[0].nic.mac1609_4 channelBusy:timeavg 0.090691216080465
attr source org_car2x_veins_modules_mac_sigChannelBusy
scalar SingleAttackerV2VScenario.node[0].veinsmobility startTime 1
scalar SingleAttackerV2VScenario.node[0].veinsmobility totalTime 199
scalar SingleAttackerV2VScenario.node[0].veinsmobility stopTime 200
scalar SingleAttackerV2VScenario.node[0].veinsmobility minSpeed 4.1061966058897
scalar SingleAttackerV2VScenario.node[0].veinsmobility maxSpeed 13.999815066161
scalar SingleAttackerV2VScenario.node[0].veinsmobility totalDistance 2693.6458966827
scalar SingleAttackerV2VScenario.node[0].veinsmobility totalCO2Emission 456.26419906984
scalar SingleAttackerV2VScenario.node[1].status nodeStatusData:count 0
attr source nodeStatusChanged
scalar SingleAttackerV2VScenario.node[1].appl generatedWSMs 1
scalar SingleAttackerV2VScenario.node[1].appl receivedWSMs 77109
scalar SingleAttackerV2VScenario.node[1].appl generatedBSMs 196
scalar SingleAttackerV2VScenario.node[1].appl receivedBSMs 960
scalar SingleAttackerV2VScenario.node[1].appl generatedWSAs 0
scalar SingleAttackerV2VScenario.node[1].appl receivedWSAs 0
scalar SingleAttackerV2VScenario.node[1].nic.phy80211p busyTime 0.092082367347002
scalar SingleAttackerV2VScenario.node[1].nic.mac1609_4 ReceivedUnicastPackets 0
scalar SingleAttackerV2VScenario.node[1].nic.mac1609_4 ReceivedBroadcasts 78069
scalar SingleAttackerV2VScenario.node[1].nic.mac1609_4 SentPackets 197
scalar SingleAttackerV2VScenario.node[1].nic.mac1609_4 SentAcknowledgements 0
scalar SingleAttackerV2VScenario.node[1].nic.mac1609_4 RetriesExceeded 0
scalar SingleAttackerV2VScenario.node[1].nic.mac1609_4 SNIRLostPackets 517
scalar SingleAttackerV2VScenario.node[1].nic.mac1609_4 RXTXLostPackets 11
scalar SingleAttackerV2VScenario.node[1].nic.mac1609_4 TotalLostPackets 528
scalar SingleAttackerV2VScenario.node[1].nic.mac1609_4 DroppedPacketsInMac 0
scalar SingleAttackerV2VScenario.node[1].nic.mac1609_4 TooLittleTime 0
scalar SingleAttackerV2VScenario.node[1].nic.mac1609_4 TimesIntoBackoff 216
scalar SingleAttackerV2VScenario.node[1].nic.mac1609_4 SlotsBackoff 271
scalar SingleAttackerV2VScenario.node[1].nic.mac1609_4 NumInternalContention 0
scalar SingleAttackerV2VScenario.node[1].nic.mac1609_4 totalBusyTime 18.059341
scalar SingleAttackerV2VScenario.node[1].nic.mac1609_4 NodeDownCount 0
scalar SingleAttackerV2VScenario.node[1].nic.mac1609_4 retriesExceeded:count 0
attr source org_car2x_veins_modules_mac_sigRetriesExceeded
scalar SingleAttackerV2VScenario.node[1].nic.mac1609_4 sentAcks:count 0
attr source org_car2x_veins_modules_mac_sigSentAck
scalar SingleAttackerV2VScenario.node[1].nic.mac1609_4 sentPackets:count 197
attr source org_car2x_veins_modules_mac_sigSentPacket
scalar SingleAttackerV2VScenario.node[1].nic.mac1609_4 collisions:count 0
attr source org_car2x_veins_modules_mac_sigCollision
scalar SingleAttackerV2VScenario.node[1].nic.mac1609_4 channelBusy:timeavg 0.092139494898024
attr source org_car2x_veins_modules_mac_sigChannelBusy
scalar SingleAttackerV2VScenario.node[1].veinsmobility startTime 4
scalar SingleAttackerV2VScenario.node[1].veinsmobility totalTime 196
scalar SingleAttackerV2VScenario.node[1].veinsmobility stopTime 200
scalar SingleAttackerV2VScenario.node[1].veinsmobility minSpeed 4.0332649588119
scalar SingleAttackerV2VScenario.node[1].veinsmobility maxSpeed 13.994007172689
scalar SingleAttackerV2VScenario.node[1].veinsmobility totalDistance 2648.1521121417
scalar SingleAttackerV2VScenario.node[1].veinsmobility totalCO2Emission 446.2633090298
scalar SingleAttackerV2VScenario.node[2].status nodeStatusData:count 0
attr source nodeStatusChanged
scalar SingleAttackerV2VScenario.node[2].appl generatedWSMs 1
scalar SingleAttackerV2VScenario.node[2].appl receivedWSMs 77113
scalar SingleAttackerV2VScenario.node[2].appl generatedBSMs 193
scalar SingleAttackerV2VScenario.node[2].appl receivedBSMs 997
scalar SingleAttackerV2VScenario.node[2].appl generatedWSAs 0
scalar SingleAttackerV2VScenario.node[2].appl receivedWSAs 0
scalar SingleAttackerV2VScenario.node[2].nic.phy80211p busyTime 0.093574259067422
scalar SingleAttackerV2VScenario.node[2].nic.mac1609_4 ReceivedUnicastPackets 0
scalar SingleAttackerV2VScenario.node[2].nic.mac1609_4 ReceivedBroadcasts 78110
scalar SingleAttackerV2VScenario.node[2].nic.mac1609_4 SentPackets 194
scalar SingleAttackerV2VScenario.node[2].nic.mac1609_4 SentAcknowledgements 0
scalar SingleAttackerV2VScenario.node[2].nic.mac1609_4 RetriesExceeded 0
scalar SingleAttackerV2VScenario.node[2].nic.mac1609_4 SNIRLostPackets 581
scalar SingleAttackerV2VScenario.node[2].nic.mac1609_4 RXTXLostPackets 6
scalar SingleAttackerV2VScenario.node[2].nic.mac1609_4 TotalLostPackets 587
scalar SingleAttackerV2VScenario.node[2].nic.mac1609_4 DroppedPacketsInMac 0
scalar SingleAttackerV2VScenario.node[2].nic.mac1609_4 TooLittleTime 0
scalar SingleAttackerV2VScenario.node[2].nic.mac1609_4 TimesIntoBackoff 211
scalar SingleAttackerV2VScenario.node[2].nic.mac1609_4 SlotsBackoff 284
scalar SingleAttackerV2VScenario.node[2].nic.mac1609_4 NumInternalContention 0
scalar SingleAttackerV2VScenario.node[2].nic.mac1609_4 totalBusyTime 18.069234
scalar SingleAttackerV2VScenario.node[2].nic.mac1609_4 NodeDownCount 0
scalar SingleAttackerV2VScenario.node[2].nic.mac1609_4 retriesExceeded:count 0
attr source org_car2x_veins_modules_mac_sigRetriesExceeded
scalar SingleAttackerV2VScenario.node[2].nic.mac1609_4 sentAcks:count 0
attr source org_car2x_veins_modules_mac_sigSentAck
scalar SingleAttackerV2VScenario.node[2].nic.mac1609_4 sentPackets:count 194
attr source org_car2x_veins_modules_mac_sigSentPacket
scalar SingleAttackerV2VScenario.node[2].nic.mac1609_4 collisions:count 0
attr source org_car2x_veins_modules_mac_sigCollision
scalar SingleAttackerV2VScenario.node[2].nic.mac1609_4 channelBusy:timeavg 0.09362297409333
attr source org_car2x_veins_modules_mac_sigChannelBusy
scalar SingleAttackerV2VScenario.node[2].veinsmobility startTime 7
scalar SingleAttackerV2VScenario.node[2].veinsmobility totalTime 193
scalar SingleAttackerV2VScenario.node[2].veinsmobility stopTime 200
scalar SingleAttackerV2VScenario.node[2].veinsmobility minSpeed 3.930963162637
scalar SingleAttackerV2VScenario.node[2].veinsmobility maxSpeed 13.998553946475
scalar SingleAttackerV2VScenario.node[2].veinsmobility totalDistance 2609.1393008112
scalar SingleAttackerV2VScenario.node[2].veinsmobility totalCO2Emission 440.32907931197
scalar SingleAttackerV2VScenario.node[3].status nodeStatusData:count 0
attr source nodeStatusChanged
scalar SingleAttackerV2VScenario.node[3].appl generatedWSMs 1
scalar SingleAttackerV2VScenario.node[3].appl receivedWSMs 77139
scalar SingleAttackerV2VScenario.node[3].appl generatedBSMs 190
scalar SingleAttackerV2VScenario.node[3].appl receivedBSMs 1051
scalar SingleAttackerV2VScenario.node[3].appl generatedWSAs 0
scalar SingleAttackerV2VScenario.node[3].appl receivedWSAs 0
scalar SingleAttackerV2VScenario.node[3].nic.phy80211p busyTime 0.095137600000066
scalar SingleAttackerV2VScenario.node[3].nic.mac1609_4 ReceivedUnicastPackets 0
scalar SingleAttackerV2VScenario.node[3].nic.mac1609_4 ReceivedBroadcasts 78190
scalar SingleAttackerV2VScenario.node[3].nic.mac1609_4 SentPackets 191
scalar SingleAttackerV2VScenario.node[3].nic.mac1609_4 SentAcknowledgements 0
scalar SingleAttackerV2VScenario.node[3].nic.mac1609_4 RetriesExceeded 0
scalar SingleAttackerV2VScenario.node[3].nic.mac1609_4 SNIRLostPackets 664
scalar SingleAttackerV2VScenario.node[3].nic.mac1609_4 RXTXLostPackets 13
scalar SingleAttackerV2VScenario.node[3].nic.mac1609_4 TotalLostPackets 677
scalar SingleAttackerV2VScenario.node[3].nic.mac1609_4 DroppedPacketsInMac 0
scalar SingleAttackerV2VScenario.node[3].nic.mac1609_4 TooLittleTime 0
scalar SingleAttackerV2VScenario.node[3].nic.mac1609_4 TimesIntoBackoff 211
scalar SingleAttackerV2VScenario.node[3].nic.mac1609_4 SlotsBackoff 314
scalar SingleAttackerV2VScenario.node[3].nic.mac1609_4 NumInternalContention 0
scalar SingleAttackerV2VScenario.node[3].nic.mac1609_4 totalBusyTime 18.084259400647
scalar SingleAttackerV2VScenario.node[3].nic.mac1609_4 NodeDownCount 0
scalar SingleAttackerV2VScenario.node[3].nic.mac1609_4 retriesExceeded:count 0
attr source org_car2x_veins_modules_mac_sigRetriesExceeded
scalar SingleAttackerV2VScenario.node[3].nic.mac1609_4 sentAcks:count 0
attr source org_car2x_veins_modules_mac_sigSentAck
scalar SingleAttackerV2VScenario.node[3].nic.mac1609_4 sentPackets:count 191
attr source org_car2x_veins_modules_mac_sigSentPacket
scalar SingleAttackerV2VScenario.node[3].nic.mac1609_4 collisions:count 0
attr source org_car2x_veins_modules_mac_sigCollision
scalar SingleAttackerV2VScenario.node[3].nic.mac1609_4 channelBusy:timeavg 0.095180312635051
attr source org_car2x_veins_modules_mac_sigChannelBusy
scalar SingleAttackerV2VScenario.node[3].veinsmobility startTime 10
scalar SingleAttackerV2VScenario.node[3].veinsmobility totalTime 190
scalar SingleAttackerV2VScenario.node[3].veinsmobility stopTime 200
scalar SingleAttackerV2VScenario.node[3].veinsmobility minSpeed 4.0076977833542
scalar SingleAttackerV2VScenario.node[3].veinsmobility maxSpeed 13.999527041174
scalar SingleAttackerV2VScenario.node[3].veinsmobility totalDistance 2537.2663323635
scalar SingleAttackerV2VScenario.node[3].veinsmobility totalCO2Emission 434.51471612558
scalar SingleAttackerV2VScenario.node[4].status nodeStatusData:count 0
attr source nodeStatusChanged
scalar SingleAttackerV2VScenario.node[4].appl generatedWSMs 1
scalar SingleAttackerV2VScenario.node[4].appl receivedWSMs 57708
scalar SingleAttackerV2VScenario.node[4].appl generatedBSMs 187
scalar SingleAttackerV2VScenario.node[4].appl receivedBSMs 2653
scalar SingleAttackerV2VScenario.node[4].appl generatedWSAs 0
scalar SingleAttackerV2VScenario.node[4].appl receivedWSAs 0
scalar SingleAttackerV2VScenario.node[4].nic.phy80211p busyTime 0.073398117647081
scalar SingleAttackerV2VScenario.node[4].nic.mac1609_4 ReceivedUnicastPackets 0
scalar SingleAttackerV2VScenario.node[4].nic.mac1609_4 ReceivedBroadcasts 60361
scalar SingleAttackerV2VScenario.node[4].nic.mac1609_4 SentPackets 188
scalar SingleAttackerV2VScenario.node[4].nic.mac1609_4 SentAcknowledgements 0
scalar SingleAttackerV2VScenario.node[4].nic.mac1609_4 RetriesExceeded 0
scalar SingleAttackerV2VScenario.node[4].nic.mac1609_4 SNIRLostPackets 412
scalar SingleAttackerV2VScenario.node[4].nic.mac1609_4 RXTXLostPackets 9
scalar SingleAttackerV2VScenario.node[4].nic.mac1609_4 TotalLostPackets 421
scalar SingleAttackerV2VScenario.node[4].nic.mac1609_4 DroppedPacketsInMac 0
scalar SingleAttackerV2VScenario.node[4].nic.mac1609_4 TooLittleTime 0
scalar SingleAttackerV2VScenario.node[4].nic.mac1609_4 TimesIntoBackoff 204
scalar SingleAttackerV2VScenario.node[4].nic.mac1609_4 SlotsBackoff 303
scalar SingleAttackerV2VScenario.node[4].nic.mac1609_4 NumInternalContention 0
scalar SingleAttackerV2VScenario.node[4].nic.mac1609_4 totalBusyTime 13.722524004034
scalar SingleAttackerV2VScenario.node[4].nic.mac1609_4 NodeDownCount 0
scalar SingleAttackerV2VScenario.node[4].nic.mac1609_4 retriesExceeded:count 0
attr source org_car2x_veins_modules_mac_sigRetriesExceeded
scalar SingleAttackerV2VScenario.node[4].nic.mac1609_4 sentAcks:count 0
attr source org_car2x_veins_modules_mac_sigSentAck
scalar SingleAttackerV2VScenario.node[4].nic.mac1609_4 sentPackets:count 188
attr source org_car2x_veins_modules_mac_sigSentPacket
scalar SingleAttackerV2VScenario.node[4].nic.mac1609_4 collisions:count 0
attr source org_car2x_veins_modules_mac_sigCollision
scalar SingleAttackerV2VScenario.node[4].nic.mac1609_4 channelBusy:timeavg 0.073382481305017
attr source org_car2x_veins_modules_mac_sigChannelBusy
scalar SingleAttackerV2VScenario.node[4].veinsmobility startTime 13
scalar SingleAttackerV2VScenario.node[4].veinsmobility totalTime 187
scalar SingleAttackerV2VScenario.node[4].veinsmobility stopTime 200
scalar SingleAttackerV2VScenario.node[4].veinsmobility minSpeed 4.1202440707026
scalar SingleAttackerV2VScenario.node[4].veinsmobility maxSpeed 13.998611656229
scalar SingleAttackerV2VScenario.node[4].veinsmobility totalDistance 1845.6015299764
scalar SingleAttackerV2VScenario.node[4].veinsmobility totalCO2Emission 363.71881255918
scalar SingleAttackerV2VScenario.node[5].status nodeStatusData:count 0
attr source nodeStatusChanged
scalar SingleAttackerV2VScenario.node[5].appl generatedWSMs 1
scalar SingleAttackerV2VScenario.node[5].appl receivedWSMs 60918
scalar SingleAttackerV2VScenario.node[5].appl generatedBSMs 184
scalar SingleAttackerV2VScenario.node[5].appl receivedBSMs 2663
scalar SingleAttackerV2VScenario.node[5].appl generatedWSAs 0
scalar SingleAttackerV2VScenario.node[5].appl receivedWSAs 0
scalar SingleAttackerV2VScenario.node[5].nic.phy80211p busyTime 0.078670000000031
scalar SingleAttackerV2VScenario.node[5].nic.mac1609_4 ReceivedUnicastPackets 0
scalar SingleAttackerV2VScenario.node[5].nic.mac1609_4 ReceivedBroadcasts 63581
scalar SingleAttackerV2VScenario.node[5].nic.mac1609_4 SentPackets 185
scalar SingleAttackerV2VScenario.node[5].nic.mac1609_4 SentAcknowledgements 0
scalar SingleAttackerV2VScenario.node[5].nic.mac1609_4 RetriesExceeded 0
scalar SingleAttackerV2VScenario.node[5].nic.mac1609_4 SNIRLostPackets 445
scalar SingleAttackerV2VScenario.node[5].nic.mac1609_4 RXTXLostPackets 8
scalar SingleAttackerV2VScenario.node[5].nic.mac1609_4 TotalLostPackets 453
scalar SingleAttackerV2VScenario.node[5].nic.mac1609_4 DroppedPacketsInMac 0
scalar SingleAttackerV2VScenario.node[5].nic.mac1609_4 TooLittleTime 0
scalar SingleAttackerV2VScenario.node[5].nic.mac1609_4 TimesIntoBackoff 199
scalar SingleAttackerV2VScenario.node[5].nic.mac1609_4 SlotsBackoff 312
scalar SingleAttackerV2VScenario.node[5].nic.mac1609_4 NumInternalContention 0
scalar SingleAttackerV2VScenario.node[5].nic.mac1609_4 totalBusyTime 14.470353
scalar SingleAttackerV2VScenario.node[5].nic.mac1609_4 NodeDownCount 0
scalar SingleAttackerV2VScenario.node[5].nic.mac1609_4 retriesExceeded:count 0
attr source org_car2x_veins_modules_mac_sigRetriesExceeded
scalar SingleAttackerV2VScenario.node[5].nic.mac1609_4 sentAcks:count 0
attr source org_car2x_veins_modules_mac_sigSentAck
scalar SingleAttackerV2VScenario.node[5].nic.mac1609_4 sentPackets:count 185
attr source org_car2x_veins_modules_mac_sigSentPacket
scalar SingleAttackerV2VScenario.node[5].nic.mac1609_4 collisions:count 0
attr source org_car2x_veins_modules_mac_sigCollision
scalar SingleAttackerV2VScenario.node[5].nic.mac1609_4 channelBusy:timeavg 0.078643222826117
attr source org_car2x_veins_modules_mac_sigChannelBusy
scalar SingleAttackerV2VScenario.node[5].veinsmobility startTime 16
scalar SingleAttackerV2VScenario.node[5].veinsmobility totalTime 184
scalar SingleAttackerV2VScenario.node[5].veinsmobility stopTime 200
scalar SingleAttackerV2VScenario.node[5].veinsmobility minSpeed 4.11254450365
scalar SingleAttackerV2VScenario.node[5].veinsmobility maxSpeed 13.999388816282
scalar SingleAttackerV2VScenario.node[5].veinsmobility totalDistance 1830.059143786
scalar SingleAttackerV2VScenario.node[5].veinsmobility totalCO2Emission 357.4329134363
scalar SingleAttackerV2VScenario.node[6].status nodeStatusData:count 0
attr source nodeStatusChanged
scalar SingleAttackerV2VScenario.node[6].appl generatedWSMs 1
scalar SingleAttackerV2VScenario.node[6].appl receivedWSMs 70505
scalar SingleAttackerV2VScenario.node[6].appl generatedBSMs 181
scalar SingleAttackerV2VScenario.node[6].appl receivedBSMs 2686
scalar SingleAttackerV2VScenario.node[6].appl generatedWSAs 0
scalar SingleAttackerV2VScenario.node[6].appl receivedWSAs 0
scalar SingleAttackerV2VScenario.node[6].nic.phy80211p busyTime 0.092406850828785
scalar SingleAttackerV2VScenario.node[6].nic.mac1609_4 ReceivedUnicastPackets 0
scalar SingleAttackerV2VScenario.node[6].nic.mac1609_4 ReceivedBroadcasts 73191
scalar SingleAttackerV2VScenario.node[6].nic.mac1609_4 SentPackets 182
scalar SingleAttackerV2VScenario.node[6].nic.mac1609_4 SentAcknowledgements 0
scalar SingleAttackerV2VScenario.node[6].nic.mac1609_4 RetriesExceeded 0
scalar SingleAttackerV2VScenario.node[6].nic.mac1609_4 SNIRLostPackets 590
scalar SingleAttackerV2VScenario.node[6].nic.mac1609_4 RXTXLostPackets 6
scalar SingleAttackerV2VScenario.node[6].nic.mac1609_4 TotalLostPackets 596
scalar SingleAttackerV2VScenario.node[6].nic.mac1609_4 DroppedPacketsInMac 0
scalar SingleAttackerV2VScenario.node[6].nic.mac1609_4 TooLittleTime 0
scalar SingleAttackerV2VScenario.node[6].nic.mac1609_4 TimesIntoBackoff 201
scalar SingleAttackerV2VScenario.node[6].nic.mac1609_4 SlotsBackoff 282
scalar SingleAttackerV2VScenario.node[6].nic.mac1609_4 NumInternalContention 0
scalar SingleAttackerV2VScenario.node[6].nic.mac1609_4 totalBusyTime 16.71371
scalar SingleAttackerV2VScenario.node[6].nic.mac1609_4 NodeDownCount 0
scalar SingleAttackerV2VScenario.node[6].nic.mac1609_4 retriesExceeded:count 0
attr source org_car2x_veins_modules_mac_sigRetriesExceeded
scalar SingleAttackerV2VScenario.node[6].nic.mac1609_4 sentAcks:count 0
attr source org_car2x_veins_modules_mac_sigSentAck
scalar SingleAttackerV2VScenario.node[6].nic.mac1609_4 sentPackets:count 182
attr source org_car2x_veins_modules_mac_sigSentPacket
scalar SingleAttackerV2VScenario.node[6].nic.mac1609_4 collisions:count 0
attr source org_car2x_veins_modules_mac_sigCollision
scalar SingleAttackerV2VScenario.node[6].nic.mac1609_4 channelBusy:timeavg 0.092340939226575
attr source org_car2x_veins_modules_mac_sigChannelBusy
scalar SingleAttackerV2VScenario.node[6].veinsmobility startTime 19
scalar SingleAttackerV2VScenario.node[6].veinsmobility totalTime 181
scalar SingleAttackerV2VScenario.node[6].veinsmobility stopTime 200
scalar SingleAttackerV2VScenario.node[6].veinsmobility minSpeed 4.067372106413
scalar SingleAttackerV2VScenario.node[6].veinsmobility maxSpeed 12.741513219538
scalar SingleAttackerV2VScenario.node[6].veinsmobility totalDistance 1704.2663523329
scalar SingleAttackerV2VScenario.node[6].veinsmobility totalCO2Emission 325.4290988932
scalar SingleAttackerV2VScenario.node[7].status nodeStatusData:count 0
attr source nodeStatusChanged
scalar SingleAttackerV2VScenario.node[7].appl generatedWSMs 1
scalar SingleAttackerV2VScenario.node[7].appl receivedWSMs 70494
scalar SingleAttackerV2VScenario.node[7].appl generatedBSMs 178
scalar SingleAttackerV2VScenario.node[7].appl receivedBSMs 2669
scalar SingleAttackerV2VScenario.node[7].appl generatedWSAs 0
scalar SingleAttackerV2VScenario.node[7].appl receivedWSAs 0
scalar SingleAttackerV2VScenario.node[7].nic.phy80211p busyTime 0.098153707865233
scalar SingleAttackerV2VScenario.node[7].nic.mac1609_4 ReceivedUnicastPackets 0
scalar SingleAttackerV2VScenario.node[7].nic.mac1609_4 ReceivedBroadcasts 73163
scalar SingleAttackerV2VScenario.node[7].nic.mac1609_4 SentPackets 179
scalar SingleAttackerV2VScenario.node[7].nic.mac1609_4 SentAcknowledgements 0
scalar SingleAttackerV2VScenario.node[7].nic.mac1609_4 RetriesExceeded 0
scalar SingleAttackerV2VScenario.node[7].nic.mac1609_4 SNIRLostPackets 3829
scalar SingleAttackerV2VScenario.node[7].nic.mac1609_4 RXTXLostPackets 9
scalar SingleAttackerV2VScenario.node[7].nic.mac1609_4 TotalLostPackets 3838
scalar SingleAttackerV2VScenario.node[7].nic.mac1609_4 DroppedPacketsInMac 0
scalar SingleAttackerV2VScenario.node[7].nic.mac1609_4 TooLittleTime 0
scalar SingleAttackerV2VScenario.node[7].nic.mac1609_4 TimesIntoBackoff 198
scalar SingleAttackerV2VScenario.node[7].nic.mac1609_4 SlotsBackoff 302
scalar SingleAttackerV2VScenario.node[7].nic.mac1609_4 NumInternalContention 0
scalar SingleAttackerV2VScenario.node[7].nic.mac1609_4 totalBusyTime 17.456707001034
scalar SingleAttackerV2VScenario.node[7].nic.mac1609_4 NodeDownCount 0
scalar SingleAttackerV2VScenario.node[7].nic.mac1609_4 retriesExceeded:count 0
attr source org_car2x_veins_modules_mac_sigRetriesExceeded
scalar SingleAttackerV2VScenario.node[7].nic.mac1609_4 sentAcks:count 0
attr source org_car2x_veins_modules_mac_sigSentAck
scalar SingleAttackerV2VScenario.node[7].nic.mac1609_4 sentPackets:count 179
attr source org_car2x_veins_modules_mac_sigSentPacket
scalar SingleAttackerV2VScenario.node[7].nic.mac1609_4 collisions:count 0
attr source org_car2x_veins_modules_mac_sigCollision
scalar SingleAttackerV2VScenario.node[7].nic.mac1609_4 channelBusy:timeavg 0.098071387646324
attr source org_car2x_veins_modules_mac_sigChannelBusy
scalar SingleAttackerV2VScenario.node[7].veinsmobility startTime 22
scalar SingleAttackerV2VScenario.node[7].veinsmobility totalTime 178
scalar SingleAttackerV2VScenario.node[7].veinsmobility stopTime 200
scalar SingleAttackerV2VScenario.node[7].veinsmobility minSpeed 4.0430421609162
scalar SingleAttackerV2VScenario.node[7].veinsmobility maxSpeed 13.996453029746
scalar SingleAttackerV2VScenario.node[7].veinsmobility totalDistance 1692.035073804
scalar SingleAttackerV2VScenario.node[7].veinsmobility totalCO2Emission 323.83808589382
scalar SingleAttackerV2VScenario.node[8].status nodeStatusData:count 0
attr source nodeStatusChanged
scalar SingleAttackerV2VScenario.node[8].appl generatedWSMs 1
scalar SingleAttackerV2VScenario.node[8].appl receivedWSMs 73679
scalar SingleAttackerV2VScenario.node[8].appl generatedBSMs 175
scalar SingleAttackerV2VScenario.node[8].appl receivedBSMs 2630
scalar SingleAttackerV2VScenario.node[8].appl generatedWSAs 0
scalar SingleAttackerV2VScenario.node[8].appl receivedWSAs 0
scalar SingleAttackerV2VScenario.node[8].nic.phy80211p busyTime 0.10410212571436
scalar SingleAttackerV2VScenario.node[8].nic.mac1609_4 ReceivedUnicastPackets 0
scalar SingleAttackerV2VScenario.node[8].nic.mac1609_4 ReceivedBroadcasts 76309
scalar SingleAttackerV2VScenario.node[8].nic.mac1609_4 SentPackets 176
scalar SingleAttackerV2VScenario.node[8].nic.mac1609_4 SentAcknowledgements 0
scalar SingleAttackerV2VScenario.node[8].nic.mac1609_4 RetriesExceeded 0
scalar SingleAttackerV2VScenario.node[8].nic.mac1609_4 SNIRLostPackets 3893
scalar SingleAttackerV2VScenario.node[8].nic.mac1609_4 RXTXLostPackets 3
scalar SingleAttackerV2VScenario.node[8].nic.mac1609_4 TotalLostPackets 3896
scalar SingleAttackerV2VScenario.node[8].nic.mac1609_4 DroppedPacketsInMac 0
scalar SingleAttackerV2VScenario.node[8].nic.mac1609_4 TooLittleTime 0
scalar SingleAttackerV2VScenario.node[8].nic.mac1609_4 TimesIntoBackoff 192
scalar SingleAttackerV2VScenario.node[8].nic.mac1609_4 SlotsBackoff 250
scalar SingleAttackerV2VScenario.node[8].nic.mac1609_4 NumInternalContention 0
scalar SingleAttackerV2VScenario.node[8].nic.mac1609_4 totalBusyTime 18.199632
scalar SingleAttackerV2VScenario.node[8].nic.mac1609_4 NodeDownCount 0
scalar SingleAttackerV2VScenario.node[8].nic.mac1609_4 retriesExceeded:count 0
attr source org_car2x_veins_modules_mac_sigRetriesExceeded
scalar SingleAttackerV2VScenario.node[8].nic.mac1609_4 sentAcks:count 0
attr source org_car2x_veins_modules_mac_sigSentAck
scalar SingleAttackerV2VScenario.node[8].nic.mac1609_4 sentPackets:count 176
attr source org_car2x_veins_modules_mac_sigSentPacket
scalar SingleAttackerV2VScenario.node[8].nic.mac1609_4 collisions:count 0
attr source org_car2x_veins_modules_mac_sigCollision
scalar SingleAttackerV2VScenario.node[8].nic.mac1609_4 channelBusy:timeavg 0.10399789714293
attr source org_car2x_veins_modules_mac_sigChannelBusy
scalar SingleAttackerV2VScenario.node[8].veinsmobility startTime 25
scalar SingleAttackerV2VScenario.node[8].veinsmobility totalTime 175
scalar SingleAttackerV2VScenario.node[8].veinsmobility stopTime 200
scalar SingleAttackerV2VScenario.node[8].veinsmobility minSpeed 4.0410625637338
scalar SingleAttackerV2VScenario.node[8].veinsmobility maxSpeed 13.996461975116
scalar SingleAttackerV2VScenario.node[8].veinsmobility totalDistance 1677.1592646272
scalar SingleAttackerV2VScenario.node[8].veinsmobility totalCO2Emission 322.32668126659
scalar SingleAttackerV2VScenario.node[9].status nodeStatusData:count 0
attr source nodeStatusChanged
scalar SingleAttackerV2VScenario.node[9].appl generatedWSMs 1
scalar SingleAttackerV2VScenario.node[9].appl receivedWSMs 76868
scalar SingleAttackerV2VScenario.node[9].appl generatedBSMs 172
scalar SingleAttackerV2VScenario.node[9].appl receivedBSMs 2617
scalar SingleAttackerV2VScenario.node[9].appl generatedWSAs 0
scalar SingleAttackerV2VScenario.node[9].appl receivedWSAs 0
scalar SingleAttackerV2VScenario.node[9].nic.phy80211p busyTime 0.1058992093024
scalar SingleAttackerV2VScenario.node[9].nic.mac1609_4 ReceivedUnicastPackets 0
scalar SingleAttackerV2VScenario.node[9].nic.mac1609_4 ReceivedBroadcasts 79485
scalar SingleAttackerV2VScenario.node[9].nic.mac1609_4 SentPackets 173
scalar SingleAttackerV2VScenario.node[9].nic.mac1609_4 SentAcknowledgements 0
scalar SingleAttackerV2VScenario.node[9].nic.mac1609_4 RetriesExceeded 0
scalar SingleAttackerV2VScenario.node[9].nic.mac1609_4 SNIRLostPackets 696
scalar SingleAttackerV2VScenario.node[9].nic.mac1609_4 RXTXLostPackets 11
scalar SingleAttackerV2VScenario.node[9].nic.mac1609_4 TotalLostPackets 707
scalar SingleAttackerV2VScenario.node[9].nic.mac1609_4 DroppedPacketsInMac 0
scalar SingleAttackerV2VScenario.node[9].nic.mac1609_4 TooLittleTime 0
scalar SingleAttackerV2VScenario.node[9].nic.mac1609_4 TimesIntoBackoff 194
scalar SingleAttackerV2VScenario.node[9].nic.mac1609_4 SlotsBackoff 264
scalar SingleAttackerV2VScenario.node[9].nic.mac1609_4 NumInternalContention 0
scalar SingleAttackerV2VScenario.node[9].nic.mac1609_4 totalBusyTime 18.196165
scalar SingleAttackerV2VScenario.node[9].nic.mac1609_4 NodeDownCount 0
scalar SingleAttackerV2VScenario.node[9].nic.mac1609_4 retriesExceeded:count 0
attr source org_car2x_veins_modules_mac_sigRetriesExceeded
scalar SingleAttackerV2VScenario.node[9].nic.mac1609_4 sentAcks:count 0
attr source org_car2x_veins_modules_mac_sigSentAck
scalar SingleAttackerV2VScenario.node[9].nic.mac1609_4 sentPackets:count 173
attr source org_car2x_veins_modules_mac_sigSentPacket
scalar SingleAttackerV2VScenario.node[9].nic.mac1609_4 collisions:count 0
attr source org_car2x_veins_modules_mac_sigCollision
scalar SingleAttackerV2VScenario.node[9].nic.mac1609_4 channelBusy:timeavg 0.10579165697682
attr source org_car2x_veins_modules_mac_sigChannelBusy
scalar SingleAttackerV2VScenario.node[9].veinsmobility startTime 28
scalar SingleAttackerV2VScenario.node[9].veinsmobility totalTime 172
scalar SingleAttackerV2VScenario.node[9].veinsmobility stopTime 200
scalar SingleAttackerV2VScenario.node[9].veinsmobility minSpeed 4.0414518827764
scalar SingleAttackerV2VScenario.node[9].veinsmobility maxSpeed 13.990338315354
scalar SingleAttackerV2VScenario.node[9].veinsmobility totalDistance 1671.2916747587
scalar SingleAttackerV2VScenario.node[9].veinsmobility totalCO2Emission 320.86906731594
scalar SingleAttackerV2VScenario.node[10].status nodeStatusData:count 0
attr source nodeStatusChanged
scalar SingleAttackerV2VScenario.node[10].appl generatedWSMs 1
scalar SingleAttackerV2VScenario.node[10].appl receivedWSMs 76862
scalar SingleAttackerV2VScenario.node[10].appl generatedBSMs 169
scalar SingleAttackerV2VScenario.node[10].appl receivedBSMs 2577
scalar SingleAttackerV2VScenario.node[10].appl generatedWSAs 0
scalar SingleAttackerV2VScenario.node[10].appl receivedWSAs 0
scalar SingleAttackerV2VScenario.node[10].nic.phy80211p busyTime 0.10777240236694
scalar SingleAttackerV2VScenario.node[10].nic.mac1609_4 ReceivedUnicastPackets 0
scalar SingleAttackerV2VScenario.node[10].nic.mac1609_4 ReceivedBroadcasts 79439
scalar SingleAttackerV2VScenario.node[10].nic.mac1609_4 SentPackets 170
scalar SingleAttackerV2VScenario.node[10].nic.mac1609_4 SentAcknowledgements 0
scalar SingleAttackerV2VScenario.node[10].nic.mac1609_4 RetriesExceeded 0
scalar SingleAttackerV2VScenario.node[10].nic.mac1609_4 SNIRLostPackets 725
scalar SingleAttackerV2VScenario.node[10].nic.mac1609_4 RXTXLostPackets 7
scalar SingleAttackerV2VScenario.node[10].nic.mac1609_4 TotalLostPackets 732
scalar SingleAttackerV2VScenario.node[10].nic.mac1609_4 DroppedPacketsInMac 0
scalar SingleAttackerV2VScenario.node[10].nic.mac1609_4 TooLittleTime 0
scalar SingleAttackerV2VScenario.node[10].nic.mac1609_4 TimesIntoBackoff 190
scalar SingleAttackerV2VScenario.node[10].nic.mac1609_4 SlotsBackoff 278
scalar SingleAttackerV2VScenario.node[10].nic.mac1609_4 NumInternalContention 0
scalar SingleAttackerV2VScenario.node[10].nic.mac1609_4 totalBusyTime 18.193714
scalar SingleAttackerV2VScenario.node[10].nic.mac1609_4 NodeDownCount 0
scalar SingleAttackerV2VScenario.node[10].nic.mac1609_4 retriesExceeded:count 0
attr source org_car2x_veins_modules_mac_sigRetriesExceeded
scalar SingleAttackerV2VScenario.node[10].nic.mac1609_4 sentAcks:count 0
attr source org_car2x_veins_modules_mac_sigSentAck
scalar SingleAttackerV2VScenario.node[10].nic.mac1609_4 sentPackets:count 170
attr source org_car2x_veins_modules_mac_sigSentPacket
scalar SingleAttackerV2VScenario.node[10].nic.mac1609_4 collisions:count 0
attr source org_car2x_veins_modules_mac_sigCollision
scalar SingleAttackerV2VScenario.node[10].nic.mac1609_4 channelBusy:timeavg 0.10765511242611
attr source org_car2x_veins_modules_mac_sigChannelBusy
scalar SingleAttackerV2VScenario.node[10].veinsmobility startTime 31
scalar SingleAttackerV2VScenario.node[10].veinsmobility totalTime 169
scalar SingleAttackerV2VScenario.node[10].veinsmobility stopTime 200
scalar SingleAttackerV2VScenario.node[10].veinsmobility minSpeed 4.0921991861071
scalar SingleAttackerV2VScenario.node[10].veinsmobility maxSpeed 13.995584658093
scalar SingleAttackerV2VScenario.node[10].veinsmobility totalDistance 1660.8712191985
scalar SingleAttackerV2VScenario.node[10].veinsmobility totalCO2Emission 313.41417404079
scalar SingleAttackerV2VScenario.node[11].status nodeStatusData:count 0
attr source nodeStatusChanged
scalar SingleAttackerV2VScenario.node[11].appl generatedWSMs 1
scalar SingleAttackerV2VScenario.node[11].appl receivedWSMs 76854
scalar SingleAttackerV2VScenario.node[11].appl generatedBSMs 166
scalar SingleAttackerV2VScenario.node[11].appl receivedBSMs 2529
scalar SingleAttackerV2VScenario.node[11].appl generatedWSAs 0
scalar SingleAttackerV2VScenario.node[11].appl receivedWSAs 0
scalar SingleAttackerV2VScenario.node[11].nic.phy80211p busyTime 0.10970115662658
scalar SingleAttackerV2VScenario.node[11].nic.mac1609_4 ReceivedUnicastPackets 0
scalar SingleAttackerV2VScenario.node[11].nic.mac1609_4 ReceivedBroadcasts 79383
scalar SingleAttackerV2VScenario.node[11].nic.mac1609_4 SentPackets 167
scalar SingleAttackerV2VScenario.node[11].nic.mac1609_4 SentAcknowledgements 0
scalar SingleAttackerV2VScenario.node[11].nic.mac1609_4 RetriesExceeded 0
scalar SingleAttackerV2VScenario.node[11].nic.mac1609_4 SNIRLostPackets 752
scalar SingleAttackerV2VScenario.node[11].nic.mac1609_4 RXTXLostPackets 9
scalar SingleAttackerV2VScenario.node[11].nic.mac1609_4 TotalLostPackets 761
scalar SingleAttackerV2VScenario.node[11].nic.mac1609_4 DroppedPacketsInMac 0
scalar SingleAttackerV2VScenario.node[11].nic.mac1609_4 TooLittleTime 0
scalar SingleAttackerV2VScenario.node[11].nic.mac1609_4 TimesIntoBackoff 185
scalar SingleAttackerV2VScenario.node[11].nic.mac1609_4 SlotsBackoff 263
scalar SingleAttackerV2VScenario.node[11].nic.mac1609_4 NumInternalContention 0
scalar SingleAttackerV2VScenario.node[11].nic.mac1609_4 totalBusyTime 18.189143
scalar SingleAttackerV2VScenario.node[11].nic.mac1609_4 NodeDownCount 0
scalar SingleAttackerV2VScenario.node[11].nic.mac1609_4 retriesExceeded:count 0
attr source org_car2x_veins_modules_mac_sigRetriesExceeded
scalar SingleAttackerV2VScenario.node[11].nic.mac1609_4 sentAcks:count 0
attr source org_car2x_veins_modules_mac_sigSentAck
scalar SingleAttackerV2VScenario.node[11].nic.mac1609_4 sentPackets:count 167
attr source org_car2x_veins_modules_mac_sigSentPacket
scalar SingleAttackerV2VScenario.node[11].nic.mac1609_4 collisions:count 0
attr source org_car2x_veins_modules_mac_sigCollision
scalar SingleAttackerV2VScenario.node[11].nic.mac1609_4 channelBusy:timeavg 0.10957315060249
attr source org_car2x_veins_modules_mac_sigChannelBusy
scalar SingleAttackerV2VScenario.node[11].veinsmobility startTime 34
scalar SingleAttackerV2VScenario.node[11].veinsmobility totalTime 166
scalar SingleAttackerV2VScenario.node[11].veinsmobility stopTime 200
scalar SingleAttackerV2VScenario.node[11].veinsmobility minSpeed 4.0902178359286
scalar SingleAttackerV2VScenario.node[11].veinsmobility maxSpeed 13.998126043116
scalar SingleAttackerV2VScenario.node[11].veinsmobility totalDistance 1650.0344063084
scalar SingleAttackerV2VScenario.node[11].veinsmobility totalCO2Emission 309.31724792624
scalar SingleAttackerV2VScenario.node[12].status nodeStatusData:count 0
attr source nodeStatusChanged
scalar SingleAttackerV2VScenario.node[12].appl generatedWSMs 1
scalar SingleAttackerV2VScenario.node[12].appl receivedWSMs 31816
scalar SingleAttackerV2VScenario.node[12].appl generatedBSMs 163
scalar SingleAttackerV2VScenario.node[12].appl receivedBSMs 1711
scalar SingleAttackerV2VScenario.node[12].appl generatedWSAs 0
scalar SingleAttackerV2VScenario.node[12].appl receivedWSAs 0
scalar SingleAttackerV2VScenario.node[12].nic.phy80211p busyTime 0.046937276073584
scalar SingleAttackerV2VScenario.node[12].nic.mac1609_4 ReceivedUnicastPackets 0
scalar SingleAttackerV2VScenario.node[12].nic.mac1609_4 ReceivedBroadcasts 33527
scalar SingleAttackerV2VScenario.node[12].nic.mac1609_4 SentPackets 164
scalar SingleAttackerV2VScenario.node[12].nic.mac1609_4 SentAcknowledgements 0
scalar SingleAttackerV2VScenario.node[12].nic.mac1609_4 RetriesExceeded 0
scalar SingleAttackerV2VScenario.node[12].nic.mac1609_4 SNIRLostPackets 496
scalar SingleAttackerV2VScenario.node[12].nic.mac1609_4 RXTXLostPackets 2
scalar SingleAttackerV2VScenario.node[12].nic.mac1609_4 TotalLostPackets 498
scalar SingleAttackerV2VScenario.node[12].nic.mac1609_4 DroppedPacketsInMac 0
scalar SingleAttackerV2VScenario.node[12].nic.mac1609_4 TooLittleTime 0
scalar SingleAttackerV2VScenario.node[12].nic.mac1609_4 TimesIntoBackoff 172
scalar SingleAttackerV2VScenario.node[12].nic.mac1609_4 SlotsBackoff 246
scalar SingleAttackerV2VScenario.node[12].nic.mac1609_4 NumInternalContention 0
scalar SingleAttackerV2VScenario.node[12].nic.mac1609_4 totalBusyTime 7.653036
scalar SingleAttackerV2VScenario.node[12].nic.mac1609_4 NodeDownCount 0
scalar SingleAttackerV2VScenario.node[12].nic.mac1609_4 retriesExceeded:count 0
attr source org_car2x_veins_modules_mac_sigRetriesExceeded
scalar SingleAttackerV2VScenario.node[12].nic.mac1609_4 sentAcks:count 0
attr source org_car2x_veins_modules_mac_sigSentAck
scalar SingleAttackerV2VScenario.node[12].nic.mac1609_4 sentPackets:count 164
attr source org_car2x_veins_modules_mac_sigSentPacket
scalar SingleAttackerV2VScenario.node[12].nic.mac1609_4 collisions:count 0
attr source org_car2x_veins_modules_mac_sigCollision
scalar SingleAttackerV2VScenario.node[12].nic.mac1609_4 channelBusy:timeavg 0.046951141104258
attr source org_car2x_veins_modules_mac_sigChannelBusy
scalar SingleAttackerV2VScenario.node[12].veinsmobility startTime 37
scalar SingleAttackerV2VScenario.node[12].veinsmobility totalTime 163
scalar SingleAttackerV2VScenario.node[12].veinsmobility stopTime 200
scalar SingleAttackerV2VScenario.node[12].veinsmobility minSpeed 3.8721652445728
scalar SingleAttackerV2VScenario.node[12].veinsmobility maxSpeed 13.974055984516
scalar SingleAttackerV2VScenario.node[12].veinsmobility totalDistance 1775.889298372
scalar SingleAttackerV2VScenario.node[12].veinsmobility totalCO2Emission 362.39765337446
scalar SingleAttackerV2VScenario.node[13].status nodeStatusData:count 0
attr source nodeStatusChanged
scalar SingleAttackerV2VScenario.node[13].appl generatedWSMs 1
scalar SingleAttackerV2VScenario.node[13].appl receivedWSMs 27038
scalar SingleAttackerV2VScenario.node[13].appl generatedBSMs 160
scalar SingleAttackerV2VScenario.node[13].appl receivedBSMs 1380
scalar SingleAttackerV2VScenario.node[13].appl generatedWSAs 0
scalar SingleAttackerV2VScenario.node[13].appl receivedWSAs 0
scalar SingleAttackerV2VScenario.node[13].nic.phy80211p busyTime 0.042943399999971
scalar SingleAttackerV2VScenario.node[13].nic.mac1609_4 ReceivedUnicastPackets 0
scalar SingleAttackerV2VScenario.node[13].nic.mac1609_4 ReceivedBroadcasts 28418
scalar SingleAttackerV2VScenario.node[13].nic.mac1609_4 SentPackets 161
scalar SingleAttackerV2VScenario.node[13].nic.mac1609_4 SentAcknowledgements 0
scalar SingleAttackerV2VScenario.node[13].nic.mac1609_4 RetriesExceeded 0
scalar SingleAttackerV2VScenario.node[13].nic.mac1609_4 SNIRLostPackets 2066
scalar SingleAttackerV2VScenario.node[13].nic.mac1609_4 RXTXLostPackets 4
scalar SingleAttackerV2VScenario.node[13].nic.mac1609_4 TotalLostPackets 2070
scalar SingleAttackerV2VScenario.node[13].nic.mac1609_4 DroppedPacketsInMac 0
scalar SingleAttackerV2VScenario.node[13].nic.mac1609_4 TooLittleTime 0
scalar SingleAttackerV2VScenario.node[13].nic.mac1609_4 TimesIntoBackoff 169
scalar SingleAttackerV2VScenario.node[13].nic.mac1609_4 SlotsBackoff 246
scalar SingleAttackerV2VScenario.node[13].nic.mac1609_4 NumInternalContention 0
scalar SingleAttackerV2VScenario.node[13].nic.mac1609_4 totalBusyTime 6.875145
scalar SingleAttackerV2VScenario.node[13].nic.mac1609_4 NodeDownCount 0
scalar SingleAttackerV2VScenario.node[13].nic.mac1609_4 retriesExceeded:count 0
attr source org_car2x_veins_modules_mac_sigRetriesExceeded
scalar SingleAttackerV2VScenario.node[13].nic.mac1609_4 sentAcks:count 0
attr source org_car2x_veins_modules_mac_sigSentAck
scalar SingleAttackerV2VScenario.node[13].nic.mac1609_4 sentPackets:count 161
attr source org_car2x_veins_modules_mac_sigSentPacket
scalar SingleAttackerV2VScenario.node[13].nic.mac1609_4 collisions:count 0
attr source org_car2x_veins_modules_mac_sigCollision
scalar SingleAttackerV2VScenario.node[13].nic.mac1609_4 channelBusy:timeavg 0.042969656249971
attr source org_car2x_veins_modules_mac_sigChannelBusy
scalar SingleAttackerV2VScenario.node[13].veinsmobility startTime 40
scalar SingleAttackerV2VScenario.node[13].veinsmobility totalTime 160
scalar SingleAttackerV2VScenario.node[13].veinsmobility stopTime 200
scalar SingleAttackerV2VScenario.node[13].veinsmobility minSpeed 3.8893497726901
scalar SingleAttackerV2VScenario.node[13].veinsmobility maxSpeed 13.998275555454
scalar SingleAttackerV2VScenario.node[13].veinsmobility totalDistance 1782.9099833986
scalar SingleAttackerV2VScenario.node[13].veinsmobility totalCO2Emission 385.80329040869
scalar SingleAttackerV2VScenario.node[14].status nodeStatusData:count 0
attr source nodeStatusChanged
scalar SingleAttackerV2VScenario.node[14].appl generatedWSMs 1
scalar SingleAttackerV2VScenario.node[14].appl receivedWSMs 31603
scalar SingleAttackerV2VScenario.node[14].appl generatedBSMs 157
scalar SingleAttackerV2VScenario.node[14].appl receivedBSMs 1750
scalar SingleAttackerV2VScenario.node[14].appl generatedWSAs 0
scalar SingleAttackerV2VScenario.node[14].appl receivedWSAs 0
scalar SingleAttackerV2VScenario.node[14].nic.phy80211p busyTime 0.04879857324837
scalar SingleAttackerV2VScenario.node[14].nic.mac1609_4 ReceivedUnicastPackets 0
scalar SingleAttackerV2VScenario.node[14].nic.mac1609_4 ReceivedBroadcasts 33353
scalar SingleAttackerV2VScenario.node[14].nic.mac1609_4 SentPackets 158
scalar SingleAttackerV2VScenario.node[14].nic.mac1609_4 SentAcknowledgements 0
scalar SingleAttackerV2VScenario.node[14].nic.mac1609_4 RetriesExceeded 0
scalar SingleAttackerV2VScenario.node[14].nic.mac1609_4 SNIRLostPackets 735
scalar SingleAttackerV2VScenario.node[14].nic.mac1609_4 RXTXLostPackets 5
scalar SingleAttackerV2VScenario.node[14].nic.mac1609_4 TotalLostPackets 740
scalar SingleAttackerV2VScenario.node[14].nic.mac1609_4 DroppedPacketsInMac 0
scalar SingleAttackerV2VScenario.node[14].nic.mac1609_4 TooLittleTime 0
scalar SingleAttackerV2VScenario.node[14].nic.mac1609_4 TimesIntoBackoff 167
scalar SingleAttackerV2VScenario.node[14].nic.mac1609_4 SlotsBackoff 260
scalar SingleAttackerV2VScenario.node[14].nic.mac1609_4 NumInternalContention 0
scalar SingleAttackerV2VScenario.node[14].nic.mac1609_4 totalBusyTime 7.66275
scalar SingleAttackerV2VScenario.node[14].nic.mac1609_4 NodeDownCount 0
scalar SingleAttackerV2VScenario.node[14].nic.mac1609_4 retriesExceeded:count 0
attr source org_car2x_veins_modules_mac_sigRetriesExceeded
scalar SingleAttackerV2VScenario.node[14].nic.mac1609_4 sentAcks:count 0
attr source org_car2x_veins_modules_mac_sigSentAck
scalar SingleAttackerV2VScenario.node[14].nic.mac1609_4 sentPackets:count 158
attr source org_car2x_veins_modules_mac_sigSentPacket
scalar SingleAttackerV2VScenario.node[14].nic.mac1609_4 collisions:count 0
attr source org_car2x_veins_modules_mac_sigCollision
scalar SingleAttackerV2VScenario.node[14].nic.mac1609_4 channelBusy:timeavg 0.048807324840727
attr source org_car2x_veins_modules_mac_sigChannelBusy
scalar SingleAttackerV2VScenario.node[14].veinsmobility startTime 43
scalar SingleAttackerV2VScenario.node[14].veinsmobility totalTime 157
scalar SingleAttackerV2VScenario.node[14].veinsmobility stopTime 200
scalar SingleAttackerV2VScenario.node[14].veinsmobility minSpeed 0
scalar SingleAttackerV2VScenario.node[14].veinsmobility maxSpeed 13.999317840978
scalar SingleAttackerV2VScenario.node[14].veinsmobility totalDistance 1658.2676131381
scalar SingleAttackerV2VScenario.node[14].veinsmobility totalCO2Emission 363.62754227819
scalar SingleAttackerV2VScenario.node[15].status nodeStatusData:count 0
attr source nodeStatusChanged
scalar SingleAttackerV2VScenario.node[15].appl generatedWSMs 1
scalar SingleAttackerV2VScenario.node[15].appl receivedWSMs 16004
scalar SingleAttackerV2VScenario.node[15].appl generatedBSMs 154
scalar SingleAttackerV2VScenario.node[15].appl receivedBSMs 1804
scalar SingleAttackerV2VScenario.node[15].appl generatedWSAs 0
scalar SingleAttackerV2VScenario.node[15].appl receivedWSAs 0
scalar SingleAttackerV2VScenario.node[15].nic.phy80211p busyTime 0.025556051948052
scalar SingleAttackerV2VScenario.node[15].nic.mac1609_4 ReceivedUnicastPackets 0
scalar SingleAttackerV2VScenario.node[15].nic.mac1609_4 ReceivedBroadcasts 17808
scalar SingleAttackerV2VScenario.node[15].nic.mac1609_4 SentPackets 155
scalar SingleAttackerV2VScenario.node[15].nic.mac1609_4 SentAcknowledgements 0
scalar SingleAttackerV2VScenario.node[15].nic.mac1609_4 RetriesExceeded 0
scalar SingleAttackerV2VScenario.node[15].nic.mac1609_4 SNIRLostPackets 218
scalar SingleAttackerV2VScenario.node[15].nic.mac1609_4 RXTXLostPackets 1
scalar SingleAttackerV2VScenario.node[15].nic.mac1609_4 TotalLostPackets 219
scalar SingleAttackerV2VScenario.node[15].nic.mac1609_4 DroppedPacketsInMac 0
scalar SingleAttackerV2VScenario.node[15].nic.mac1609_4 TooLittleTime 0
scalar SingleAttackerV2VScenario.node[15].nic.mac1609_4 TimesIntoBackoff 160
scalar SingleAttackerV2VScenario.node[15].nic.mac1609_4 SlotsBackoff 246
scalar SingleAttackerV2VScenario.node[15].nic.mac1609_4 NumInternalContention 0
scalar SingleAttackerV2VScenario.node[15].nic.mac1609_4 totalBusyTime 3.944691
scalar SingleAttackerV2VScenario.node[15].nic.mac1609_4 NodeDownCount 0
scalar SingleAttackerV2VScenario.node[15].nic.mac1609_4 retriesExceeded:count 0
attr source org_car2x_veins_modules_mac_sigRetriesExceeded
scalar SingleAttackerV2VScenario.node[15].nic.mac1609_4 sentAcks:count 0
attr source org_car2x_veins_modules_mac_sigSentAck
scalar SingleAttackerV2VScenario.node[15].nic.mac1609_4 sentPackets:count 155
attr source org_car2x_veins_modules_mac_sigSentPacket
scalar SingleAttackerV2VScenario.node[15].nic.mac1609_4 collisions:count 0
attr source org_car2x_veins_modules_mac_sigCollision
scalar SingleAttackerV2VScenario.node[15].nic.mac1609_4 channelBusy:timeavg 0.025614876623376
attr source org_car2x_veins_modules_mac_sigChannelBusy
scalar SingleAttackerV2VScenario.node[15].veinsmobility startTime 46
scalar SingleAttackerV2VScenario.node[15].veinsmobility totalTime 154
scalar SingleAttackerV2VScenario.node[15].veinsmobility stopTime 200
scalar SingleAttackerV2VScenario.node[15].veinsmobility minSpeed 2.1298658241565
scalar SingleAttackerV2VScenario.node[15].veinsmobility maxSpeed 13.994507228746
scalar SingleAttackerV2VScenario.node[15].veinsmobility totalDistance 1631.2665452796
scalar SingleAttackerV2VScenario.node[15].veinsmobility totalCO2Emission 352.88838843021
scalar SingleAttackerV2VScenario.node[16].status nodeStatusData:count 0
attr source nodeStatusChanged
scalar SingleAttackerV2VScenario.node[16].appl generatedWSMs 1
scalar SingleAttackerV2VScenario.node[16].appl receivedWSMs 10
scalar SingleAttackerV2VScenario.node[16].appl generatedBSMs 151
scalar SingleAttackerV2VScenario.node[16].appl receivedBSMs 2213
scalar SingleAttackerV2VScenario.node[16].appl generatedWSAs 0
scalar SingleAttackerV2VScenario.node[16].appl receivedWSAs 0
scalar SingleAttackerV2VScenario.node[16].nic.phy80211p busyTime 0.0016118675496688
scalar SingleAttackerV2VScenario.node[16].nic.mac1609_4 ReceivedUnicastPackets 0
scalar SingleAttackerV2VScenario.node[16].nic.mac1609_4 ReceivedBroadcasts 2223
scalar SingleAttackerV2VScenario.node[16].nic.mac1609_4 SentPackets 152
scalar SingleAttackerV2VScenario.node[16].nic.mac1609_4 SentAcknowledgements 0
scalar SingleAttackerV2VScenario.node[16].nic.mac1609_4 RetriesExceeded 0
scalar SingleAttackerV2VScenario.node[16].nic.mac1609_4 SNIRLostPackets 105
scalar SingleAttackerV2VScenario.node[16].nic.mac1609_4 RXTXLostPackets 0
scalar SingleAttackerV2VScenario.node[16].nic.mac1609_4 TotalLostPackets 105
scalar SingleAttackerV2VScenario.node[16].nic.mac1609_4 DroppedPacketsInMac 0
scalar SingleAttackerV2VScenario.node[16].nic.mac1609_4 TooLittleTime 0
scalar SingleAttackerV2VScenario.node[16].nic.mac1609_4 TimesIntoBackoff 152
scalar SingleAttackerV2VScenario.node[16].nic.mac1609_4 SlotsBackoff 238
scalar SingleAttackerV2VScenario.node[16].nic.mac1609_4 NumInternalContention 0
scalar SingleAttackerV2VScenario.node[16].nic.mac1609_4 totalBusyTime 0.25948
scalar SingleAttackerV2VScenario.node[16].nic.mac1609_4 NodeDownCount 0
scalar SingleAttackerV2VScenario.node[16].nic.mac1609_4 retriesExceeded:count 0
attr source org_car2x_veins_modules_mac_sigRetriesExceeded
scalar SingleAttackerV2VScenario.node[16].nic.mac1609_4 sentAcks:count 0
attr source org_car2x_veins_modules_mac_sigSentAck
scalar SingleAttackerV2VScenario.node[16].nic.mac1609_4 sentPackets:count 152
attr source org_car2x_veins_modules_mac_sigSentPacket
scalar SingleAttackerV2VScenario.node[16].nic.mac1609_4 collisions:count 0
attr source org_car2x_veins_modules_mac_sigCollision
scalar SingleAttackerV2VScenario.node[16].nic.mac1609_4 channelBusy:timeavg 0.0017184105960265
attr source org_car2x_veins_modules_mac_sigChannelBusy
scalar SingleAttackerV2VScenario.node[16].veinsmobility startTime 49
scalar SingleAttackerV2VScenario.node[16].veinsmobility totalTime 151
scalar SingleAttackerV2VScenario.node[16].veinsmobility stopTime 200
scalar SingleAttackerV2VScenario.node[16].veinsmobility minSpeed 3.9289234951894
scalar SingleAttackerV2VScenario.node[16].veinsmobility maxSpeed 12.063327381323
scalar SingleAttackerV2VScenario.node[16].veinsmobility totalDistance 1160.0922238939
scalar SingleAttackerV2VScenario.node[16].veinsmobility totalCO2Emission 261.04262757272
scalar SingleAttackerV2VScenario.node[17].status nodeStatusData:count 0
attr source nodeStatusChanged
scalar SingleAttackerV2VScenario.node[17].appl generatedWSMs 1
scalar SingleAttackerV2VScenario.node[17].appl receivedWSMs 11
scalar SingleAttackerV2VScenario.node[17].appl generatedBSMs 148
scalar SingleAttackerV2VScenario.node[17].appl receivedBSMs 2205
scalar SingleAttackerV2VScenario.node[17].appl generatedWSAs 0
scalar SingleAttackerV2VScenario.node[17].appl receivedWSAs 0
scalar SingleAttackerV2VScenario.node[17].nic.phy80211p busyTime 0.0016541621621621
scalar SingleAttackerV2VScenario.node[17].nic.mac1609_4 ReceivedUnicastPackets 0
scalar SingleAttackerV2VScenario.node[17].nic.mac1609_4 ReceivedBroadcasts 2216
scalar SingleAttackerV2VScenario.node[17].nic.mac1609_4 SentPackets 149
scalar SingleAttackerV2VScenario.node[17].nic.mac1609_4 SentAcknowledgements 0
scalar SingleAttackerV2VScenario.node[17].nic.mac1609_4 RetriesExceeded 0
scalar SingleAttackerV2VScenario.node[17].nic.mac1609_4 SNIRLostPackets 122
scalar SingleAttackerV2VScenario.node[17].nic.mac1609_4 RXTXLostPackets 0
scalar SingleAttackerV2VScenario.node[17].nic.mac1609_4 TotalLostPackets 122
scalar SingleAttackerV2VScenario.node[17].nic.mac1609_4 DroppedPacketsInMac 0
scalar SingleAttackerV2VScenario.node[17].nic.mac1609_4 TooLittleTime 0
scalar SingleAttackerV2VScenario.node[17].nic.mac1609_4 TimesIntoBackoff 149
scalar SingleAttackerV2VScenario.node[17].nic.mac1609_4 SlotsBackoff 220
scalar SingleAttackerV2VScenario.node[17].nic.mac1609_4 NumInternalContention 0
scalar SingleAttackerV2VScenario.node[17].nic.mac1609_4 totalBusyTime 0.260589
scalar SingleAttackerV2VScenario.node[17].nic.mac1609_4 NodeDownCount 0
scalar SingleAttackerV2VScenario.node[17].nic.mac1609_4 retriesExceeded:count 0
attr source org_car2x_veins_modules_mac_sigRetriesExceeded
scalar SingleAttackerV2VScenario.node[17].nic.mac1609_4 sentAcks:count 0
attr source org_car2x_veins_modules_mac_sigSentAck
scalar SingleAttackerV2VScenario.node[17].nic.mac1609_4 sentPackets:count 149
attr source org_car2x_veins_modules_mac_sigSentPacket
scalar SingleAttackerV2VScenario.node[17].nic.mac1609_4 collisions:count 0
attr source org_car2x_veins_modules_mac_sigCollision
scalar SingleAttackerV2VScenario.node[17].nic.mac1609_4 channelBusy:timeavg 0.0017607364864865
attr source org_car2x_veins_modules_mac_sigChannelBusy
scalar SingleAttackerV2VScenario.node[17].veinsmobility startTime 52
scalar SingleAttackerV2VScenario.node[17].veinsmobility totalTime 148
scalar SingleAttackerV2VScenario.node[17].veinsmobility stopTime 200
scalar SingleAttackerV2VScenario.node[17].veinsmobility minSpeed 4.1654516040827
scalar SingleAttackerV2VScenario.node[17].veinsmobility maxSpeed 12.824866217841
scalar SingleAttackerV2VScenario.node[17].veinsmobility totalDistance 1144.4690167129
scalar SingleAttackerV2VScenario.node[17].veinsmobility totalCO2Emission 257.54337215323
scalar SingleAttackerV2VScenario.node[18].status nodeStatusData:count 0
attr source nodeStatusChanged
scalar SingleAttackerV2VScenario.node[18].appl generatedWSMs 1
scalar SingleAttackerV2VScenario.node[18].appl receivedWSMs 14
scalar SingleAttackerV2VScenario.node[18].appl generatedBSMs 145
scalar SingleAttackerV2VScenario.node[18].appl receivedBSMs 2206
scalar SingleAttackerV2VScenario.node[18].appl generatedWSAs 0
scalar SingleAttackerV2VScenario.node[18].appl receivedWSAs 0
scalar SingleAttackerV2VScenario.node[18].nic.phy80211p busyTime 0.0067772689655173
scalar SingleAttackerV2VScenario.node[18].nic.mac1609_4 ReceivedUnicastPackets 0
scalar SingleAttackerV2VScenario.node[18].nic.mac1609_4 ReceivedBroadcasts 2220
scalar SingleAttackerV2VScenario.node[18].nic.mac1609_4 SentPackets 146
scalar SingleAttackerV2VScenario.node[18].nic.mac1609_4 SentAcknowledgements 0
scalar SingleAttackerV2VScenario.node[18].nic.mac1609_4 RetriesExceeded 0
scalar SingleAttackerV2VScenario.node[18].nic.mac1609_4 SNIRLostPackets 3298
scalar SingleAttackerV2VScenario.node[18].nic.mac1609_4 RXTXLostPackets 1
scalar SingleAttackerV2VScenario.node[18].nic.mac1609_4 TotalLostPackets 3299
scalar SingleAttackerV2VScenario.node[18].nic.mac1609_4 DroppedPacketsInMac 0
scalar SingleAttackerV2VScenario.node[18].nic.mac1609_4 TooLittleTime 0
scalar SingleAttackerV2VScenario.node[18].nic.mac1609_4 TimesIntoBackoff 147
scalar SingleAttackerV2VScenario.node[18].nic.mac1609_4 SlotsBackoff 234
scalar SingleAttackerV2VScenario.node[18].nic.mac1609_4 NumInternalContention 0
scalar SingleAttackerV2VScenario.node[18].nic.mac1609_4 totalBusyTime 0.997178
scalar SingleAttackerV2VScenario.node[18].nic.mac1609_4 NodeDownCount 0
scalar SingleAttackerV2VScenario.node[18].nic.mac1609_4 retriesExceeded:count 0
attr source org_car2x_veins_modules_mac_sigRetriesExceeded
scalar SingleAttackerV2VScenario.node[18].nic.mac1609_4 sentAcks:count 0
attr source org_car2x_veins_modules_mac_sigSentAck
scalar SingleAttackerV2VScenario.node[18].nic.mac1609_4 sentPackets:count 146
attr source org_car2x_veins_modules_mac_sigSentPacket
scalar SingleAttackerV2VScenario.node[18].nic.mac1609_4 collisions:count 0
attr source org_car2x_veins_modules_mac_sigCollision
scalar SingleAttackerV2VScenario.node[18].nic.mac1609_4 channelBusy:timeavg 0.0068770896551725
attr source org_car2x_veins_modules_mac_sigChannelBusy
scalar SingleAttackerV2VScenario.node[18].veinsmobility startTime 55
scalar SingleAttackerV2VScenario.node[18].veinsmobility totalTime 145
scalar SingleAttackerV2VScenario.node[18].veinsmobility stopTime 200
scalar SingleAttackerV2VScenario.node[18].veinsmobility minSpeed 4.0059353912065
scalar SingleAttackerV2VScenario.node[18].veinsmobility maxSpeed 13.491267315593
scalar SingleAttackerV2VScenario.node[18].veinsmobility totalDistance 1129.8419679487
scalar SingleAttackerV2VScenario.node[18].veinsmobility totalCO2Emission 255.72665421292
scalar SingleAttackerV2VScenario.node[20].status nodeStatusData:count 0
attr source nodeStatusChanged
scalar SingleAttackerV2VScenario.node[20].appl generatedWSMs 1
scalar SingleAttackerV2VScenario.node[20].appl receivedWSMs 14
scalar SingleAttackerV2VScenario.node[20].appl generatedBSMs 142
scalar SingleAttackerV2VScenario.node[20].appl receivedBSMs 2201
scalar SingleAttackerV2VScenario.node[20].appl generatedWSAs 0
scalar SingleAttackerV2VScenario.node[20].appl receivedWSAs 0
scalar SingleAttackerV2VScenario.node[20].nic.phy80211p busyTime 0.017404732394365
scalar SingleAttackerV2VScenario.node[20].nic.mac1609_4 ReceivedUnicastPackets 0
scalar SingleAttackerV2VScenario.node[20].nic.mac1609_4 ReceivedBroadcasts 2215
scalar SingleAttackerV2VScenario.node[20].nic.mac1609_4 SentPackets 143
scalar SingleAttackerV2VScenario.node[20].nic.mac1609_4 SentAcknowledgements 0
scalar SingleAttackerV2VScenario.node[20].nic.mac1609_4 RetriesExceeded 0
scalar SingleAttackerV2VScenario.node[20].nic.mac1609_4 SNIRLostPackets 9719
scalar SingleAttackerV2VScenario.node[20].nic.mac1609_4 RXTXLostPackets 2
scalar SingleAttackerV2VScenario.node[20].nic.mac1609_4 TotalLostPackets 9721
scalar SingleAttackerV2VScenario.node[20].nic.mac1609_4 DroppedPacketsInMac 0
scalar SingleAttackerV2VScenario.node[20].nic.mac1609_4 TooLittleTime 0
scalar SingleAttackerV2VScenario.node[20].nic.mac1609_4 TimesIntoBackoff 146
scalar SingleAttackerV2VScenario.node[20].nic.mac1609_4 SlotsBackoff 209
scalar SingleAttackerV2VScenario.node[20].nic.mac1609_4 NumInternalContention 0
scalar SingleAttackerV2VScenario.node[20].nic.mac1609_4 totalBusyTime 2.483375
scalar SingleAttackerV2VScenario.node[20].nic.mac1609_4 NodeDownCount 0
scalar SingleAttackerV2VScenario.node[20].nic.mac1609_4 retriesExceeded:count 0
attr source org_car2x_veins_modules_mac_sigRetriesExceeded
scalar SingleAttackerV2VScenario.node[20].nic.mac1609_4 sentAcks:count 0
attr source org_car2x_veins_modules_mac_sigSentAck
scalar SingleAttackerV2VScenario.node[20].nic.mac1609_4 sentPackets:count 143
attr source org_car2x_veins_modules_mac_sigSentPacket
scalar SingleAttackerV2VScenario.node[20].nic.mac1609_4 collisions:count 0
attr source org_car2x_veins_modules_mac_sigCollision
scalar SingleAttackerV2VScenario.node[20].nic.mac1609_4 channelBusy:timeavg 0.017488556338027
attr source org_car2x_veins_modules_mac_sigChannelBusy
scalar SingleAttackerV2VScenario.node[20].veinsmobility startTime 58
scalar SingleAttackerV2VScenario.node[20].veinsmobility totalTime 142
scalar SingleAttackerV2VScenario.node[20].veinsmobility stopTime 200
scalar SingleAttackerV2VScenario.node[20].veinsmobility minSpeed 4.1077073881151
scalar SingleAttackerV2VScenario.node[20].veinsmobility maxSpeed 13.992575319903
scalar SingleAttackerV2VScenario.node[20].veinsmobility totalDistance 1113.2984801237
scalar SingleAttackerV2VScenario.node[20].veinsmobility totalCO2Emission 256.65022917249
scalar SingleAttackerV2VScenario.node[21].status nodeStatusData:count 0
attr source nodeStatusChanged
scalar SingleAttackerV2VScenario.node[21].appl generatedWSMs 1
scalar SingleAttackerV2VScenario.node[21].appl receivedWSMs 13
scalar SingleAttackerV2VScenario.node[21].appl generatedBSMs 139
scalar SingleAttackerV2VScenario.node[21].appl receivedBSMs 2173
scalar SingleAttackerV2VScenario.node[21].appl generatedWSAs 0
scalar SingleAttackerV2VScenario.node[21].appl receivedWSAs 0
scalar SingleAttackerV2VScenario.node[21].nic.phy80211p busyTime 0.01782889208633
scalar SingleAttackerV2VScenario.node[21].nic.mac1609_4 ReceivedUnicastPackets 0
scalar SingleAttackerV2VScenario.node[21].nic.mac1609_4 ReceivedBroadcasts 2186
scalar SingleAttackerV2VScenario.node[21].nic.mac1609_4 SentPackets 140
scalar SingleAttackerV2VScenario.node[21].nic.mac1609_4 SentAcknowledgements 0
scalar SingleAttackerV2VScenario.node[21].nic.mac1609_4 RetriesExceeded 0
scalar SingleAttackerV2VScenario.node[21].nic.mac1609_4 SNIRLostPackets 9771
scalar SingleAttackerV2VScenario.node[21].nic.mac1609_4 RXTXLostPackets 1
scalar SingleAttackerV2VScenario.node[21].nic.mac1609_4 TotalLostPackets 9772
scalar SingleAttackerV2VScenario.node[21].nic.mac1609_4 DroppedPacketsInMac 0
scalar SingleAttackerV2VScenario.node[21].nic.mac1609_4 TooLittleTime 0
scalar SingleAttackerV2VScenario.node[21].nic.mac1609_4 TimesIntoBackoff 143
scalar SingleAttackerV2VScenario.node[21].nic.mac1609_4 SlotsBackoff 220
scalar SingleAttackerV2VScenario.node[21].nic.mac1609_4 NumInternalContention 0
scalar SingleAttackerV2VScenario.node[21].nic.mac1609_4 totalBusyTime 2.488228
scalar SingleAttackerV2VScenario.node[21].nic.mac1609_4 NodeDownCount 0
scalar SingleAttackerV2VScenario.node[21].nic.mac1609_4 retriesExceeded:count 0
attr source org_car2x_veins_modules_mac_sigRetriesExceeded
scalar SingleAttackerV2VScenario.node[21].nic.mac1609_4 sentAcks:count 0
attr source org_car2x_veins_modules_mac_sigSentAck
scalar SingleAttackerV2VScenario.node[21].nic.mac1609_4 sentPackets:count 140
attr source org_car2x_veins_modules_mac_sigSentPacket
scalar SingleAttackerV2VScenario.node[21].nic.mac1609_4 collisions:count 0
attr source org_car2x_veins_modules_mac_sigCollision
scalar SingleAttackerV2VScenario.node[21].nic.mac1609_4 channelBusy:timeavg 0.017900920863308
attr source org_car2x_veins_modules_mac_sigChannelBusy
scalar SingleAttackerV2VScenario.node[21].veinsmobility startTime 61
scalar SingleAttackerV2VScenario.node[21].veinsmobility totalTime 139
scalar SingleAttackerV2VScenario.node[21].veinsmobility stopTime 200
scalar SingleAttackerV2VScenario.node[21].veinsmobility minSpeed 3.9168212624827
scalar SingleAttackerV2VScenario.node[21].veinsmobility maxSpeed 13.974547270818
scalar SingleAttackerV2VScenario.node[21].veinsmobility totalDistance 1098.2479446717
scalar SingleAttackerV2VScenario.node[21].veinsmobility totalCO2Emission 253.51976159879
scalar SingleAttackerV2VScenario.node[22].status nodeStatusData:count 0
attr source nodeStatusChanged
scalar SingleAttackerV2VScenario.node[22].appl generatedWSMs 0
scalar SingleAttackerV2VScenario.node[22].appl receivedWSMs 0
scalar SingleAttackerV2VScenario.node[22].appl generatedBSMs 136
scalar SingleAttackerV2VScenario.node[22].appl receivedBSMs 2007
scalar SingleAttackerV2VScenario.node[22].appl generatedWSAs 0
scalar SingleAttackerV2VScenario.node[22].appl receivedWSAs 0
scalar SingleAttackerV2VScenario.node[22].nic.phy80211p busyTime 0.0073886470588236
scalar SingleAttackerV2VScenario.node[22].nic.mac1609_4 ReceivedUnicastPackets 0
scalar SingleAttackerV2VScenario.node[22].nic.mac1609_4 ReceivedBroadcasts 2007
scalar SingleAttackerV2VScenario.node[22].nic.mac1609_4 SentPackets 136
scalar SingleAttackerV2VScenario.node[22].nic.mac1609_4 SentAcknowledgements 0
scalar SingleAttackerV2VScenario.node[22].nic.mac1609_4 RetriesExceeded 0
scalar SingleAttackerV2VScenario.node[22].nic.mac1609_4 SNIRLostPackets 3692
scalar SingleAttackerV2VScenario.node[22].nic.mac1609_4 RXTXLostPackets 0
scalar SingleAttackerV2VScenario.node[22].nic.mac1609_4 TotalLostPackets 3692
scalar SingleAttackerV2VScenario.node[22].nic.mac1609_4 DroppedPacketsInMac 0
scalar SingleAttackerV2VScenario.node[22].nic.mac1609_4 TooLittleTime 0
scalar SingleAttackerV2VScenario.node[22].nic.mac1609_4 TimesIntoBackoff 136
scalar SingleAttackerV2VScenario.node[22].nic.mac1609_4 SlotsBackoff 215
scalar SingleAttackerV2VScenario.node[22].nic.mac1609_4 NumInternalContention 0
scalar SingleAttackerV2VScenario.node[22].nic.mac1609_4 totalBusyTime 1.018086227926
scalar SingleAttackerV2VScenario.node[22].nic.mac1609_4 NodeDownCount 0
scalar SingleAttackerV2VScenario.node[22].nic.mac1609_4 retriesExceeded:count 0
attr source org_car2x_veins_modules_mac_sigRetriesExceeded
scalar SingleAttackerV2VScenario.node[22].nic.mac1609_4 sentAcks:count 0
attr source org_car2x_veins_modules_mac_sigSentAck
scalar SingleAttackerV2VScenario.node[22].nic.mac1609_4 sentPackets:count 136
attr source org_car2x_veins_modules_mac_sigSentPacket
scalar SingleAttackerV2VScenario.node[22].nic.mac1609_4 collisions:count 0
attr source org_car2x_veins_modules_mac_sigCollision
scalar SingleAttackerV2VScenario.node[22].nic.mac1609_4 channelBusy:timeavg 0.0074859281465149
attr source org_car2x_veins_modules_mac_sigChannelBusy
scalar SingleAttackerV2VScenario.node[22].veinsmobility startTime 64
scalar SingleAttackerV2VScenario.node[22].veinsmobility totalTime 136
scalar SingleAttackerV2VScenario.node[22].veinsmobility stopTime 200
scalar SingleAttackerV2VScenario.node[22].veinsmobility minSpeed 4.0312268259559
scalar SingleAttackerV2VScenario.node[22].veinsmobility maxSpeed 13.999499795509
scalar SingleAttackerV2VScenario.node[22].veinsmobility totalDistance 1805.5283282177
scalar SingleAttackerV2VScenario.node[22].veinsmobility totalCO2Emission 327.18201563337
scalar SingleAttackerV2VScenario.node[23].status nodeStatusData:count 0
attr source nodeStatusChanged
scalar SingleAttackerV2VScenario.node[23].appl generatedWSMs 0
scalar SingleAttackerV2VScenario.node[23].appl receivedWSMs 0
scalar SingleAttackerV2VScenario.node[23].appl generatedBSMs 133
scalar SingleAttackerV2VScenario.node[23].appl receivedBSMs 2248
scalar SingleAttackerV2VScenario.node[23].appl generatedWSAs 0
scalar SingleAttackerV2VScenario.node[23].appl receivedWSAs 0
scalar SingleAttackerV2VScenario.node[23].nic.phy80211p busyTime 0.0020330827067669
scalar SingleAttackerV2VScenario.node[23].nic.mac1609_4 ReceivedUnicastPackets 0
scalar SingleAttackerV2VScenario.node[23].nic.mac1609_4 ReceivedBroadcasts 2248
scalar SingleAttackerV2VScenario.node[23].nic.mac1609_4 SentPackets 133
scalar SingleAttackerV2VScenario.node[23].nic.mac1609_4 SentAcknowledgements 0
scalar SingleAttackerV2VScenario.node[23].nic.mac1609_4 RetriesExceeded 0
scalar SingleAttackerV2VScenario.node[23].nic.mac1609_4 SNIRLostPackets 352
scalar SingleAttackerV2VScenario.node[23].nic.mac1609_4 RXTXLostPackets 0
scalar SingleAttackerV2VScenario.node[23].nic.mac1609_4 TotalLostPackets 352
scalar SingleAttackerV2VScenario.node[23].nic.mac1609_4 DroppedPacketsInMac 0
scalar SingleAttackerV2VScenario.node[23].nic.mac1609_4 TooLittleTime 0
scalar SingleAttackerV2VScenario.node[23].nic.mac1609_4 TimesIntoBackoff 133
scalar SingleAttackerV2VScenario.node[23].nic.mac1609_4 SlotsBackoff 188
scalar SingleAttackerV2VScenario.node[23].nic.mac1609_4 NumInternalContention 0
scalar SingleAttackerV2VScenario.node[23].nic.mac1609_4 totalBusyTime 0.284365
scalar SingleAttackerV2VScenario.node[23].nic.mac1609_4 NodeDownCount 0
scalar SingleAttackerV2VScenario.node[23].nic.mac1609_4 retriesExceeded:count 0
attr source org_car2x_veins_modules_mac_sigRetriesExceeded
scalar SingleAttackerV2VScenario.node[23].nic.mac1609_4 sentAcks:count 0
attr source org_car2x_veins_modules_mac_sigSentAck
scalar SingleAttackerV2VScenario.node[23].nic.mac1609_4 sentPackets:count 133
attr source org_car2x_veins_modules_mac_sigSentPacket
scalar SingleAttackerV2VScenario.node[23].nic.mac1609_4 collisions:count 0
attr source org_car2x_veins_modules_mac_sigCollision
scalar SingleAttackerV2VScenario.node[23].nic.mac1609_4 channelBusy:timeavg 0.0021380827067669
attr source org_car2x_veins_modules_mac_sigChannelBusy
scalar SingleAttackerV2VScenario.node[23].veinsmobility startTime 67
scalar SingleAttackerV2VScenario.node[23].veinsmobility totalTime 133
scalar SingleAttackerV2VScenario.node[23].veinsmobility stopTime 200
scalar SingleAttackerV2VScenario.node[23].veinsmobility minSpeed 3.9833337411538
scalar SingleAttackerV2VScenario.node[23].veinsmobility maxSpeed 13.997477567426
scalar SingleAttackerV2VScenario.node[23].veinsmobility totalDistance 1668.6704782727
scalar SingleAttackerV2VScenario.node[23].veinsmobility totalCO2Emission 298.6783729727
scalar SingleAttackerV2VScenario.node[24].status nodeStatusData:count 0
attr source nodeStatusChanged
scalar SingleAttackerV2VScenario.node[24].appl generatedWSMs 0
scalar SingleAttackerV2VScenario.node[24].appl receivedWSMs 0
scalar SingleAttackerV2VScenario.node[24].appl generatedBSMs 130
scalar SingleAttackerV2VScenario.node[24].appl receivedBSMs 2249
scalar SingleAttackerV2VScenario.node[24].appl generatedWSAs 0
scalar SingleAttackerV2VScenario.node[24].appl receivedWSAs 0
scalar SingleAttackerV2VScenario.node[24].nic.phy80211p busyTime 0.0020528
scalar SingleAttackerV2VScenario.node[24].nic.mac1609_4 ReceivedUnicastPackets 0
scalar SingleAttackerV2VScenario.node[24].nic.mac1609_4 ReceivedBroadcasts 2249
scalar SingleAttackerV2VScenario.node[24].nic.mac1609_4 SentPackets 130
scalar SingleAttackerV2VScenario.node[24].nic.mac1609_4 SentAcknowledgements 0
scalar SingleAttackerV2VScenario.node[24].nic.mac1609_4 RetriesExceeded 0
scalar SingleAttackerV2VScenario.node[24].nic.mac1609_4 SNIRLostPackets 317
scalar SingleAttackerV2VScenario.node[24].nic.mac1609_4 RXTXLostPackets 0
scalar SingleAttackerV2VScenario.node[24].nic.mac1609_4 TotalLostPackets 317
scalar SingleAttackerV2VScenario.node[24].nic.mac1609_4 DroppedPacketsInMac 0
scalar SingleAttackerV2VScenario.node[24].nic.mac1609_4 TooLittleTime 0
scalar SingleAttackerV2VScenario.node[24].nic.mac1609_4 TimesIntoBackoff 130
scalar SingleAttackerV2VScenario.node[24].nic.mac1609_4 SlotsBackoff 231
scalar SingleAttackerV2VScenario.node[24].nic.mac1609_4 NumInternalContention 0
scalar SingleAttackerV2VScenario.node[24].nic.mac1609_4 totalBusyTime 0.280514
scalar SingleAttackerV2VScenario.node[24].nic.mac1609_4 NodeDownCount 0
scalar SingleAttackerV2VScenario.node[24].nic.mac1609_4 retriesExceeded:count 0
attr source org_car2x_veins_modules_mac_sigRetriesExceeded
scalar SingleAttackerV2VScenario.node[24].nic.mac1609_4 sentAcks:count 0
attr source org_car2x_veins_modules_mac_sigSentAck
scalar SingleAttackerV2VScenario.node[24].nic.mac1609_4 sentPackets:count 130
attr source org_car2x_veins_modules_mac_sigSentPacket
scalar SingleAttackerV2VScenario.node[24].nic.mac1609_4 collisions:count 0
attr source org_car2x_veins_modules_mac_sigCollision
scalar SingleAttackerV2VScenario.node[24].nic.mac1609_4 channelBusy:timeavg 0.0021578
attr source org_car2x_veins_modules_mac_sigChannelBusy
scalar SingleAttackerV2VScenario.node[24].veinsmobility startTime 70
scalar SingleAttackerV2VScenario.node[24].veinsmobility totalTime 130
scalar SingleAttackerV2VScenario.node[24].veinsmobility stopTime 200
scalar SingleAttackerV2VScenario.node[24].veinsmobility minSpeed 4.0109846863884
scalar SingleAttackerV2VScenario.node[24].veinsmobility maxSpeed 13.996943999445
scalar SingleAttackerV2VScenario.node[24].veinsmobility totalDistance 1641.2199423861
scalar SingleAttackerV2VScenario.node[24].veinsmobility totalCO2Emission 296.68592102826
scalar SingleAttackerV2VScenario.node[25].status nodeStatusData:count 0
attr source nodeStatusChanged
scalar SingleAttackerV2VScenario.node[25].appl generatedWSMs 0
scalar SingleAttackerV2VScenario.node[25].appl receivedWSMs 0
scalar SingleAttackerV2VScenario.node[25].appl generatedBSMs 127
scalar SingleAttackerV2VScenario.node[25].appl receivedBSMs 2254
scalar SingleAttackerV2VScenario.node[25].appl generatedWSAs 0
scalar SingleAttackerV2VScenario.node[25].appl receivedWSAs 0
scalar SingleAttackerV2VScenario.node[25].nic.phy80211p busyTime 0.0020906456692913
scalar SingleAttackerV2VScenario.node[25].nic.mac1609_4 ReceivedUnicastPackets 0
scalar SingleAttackerV2VScenario.node[25].nic.mac1609_4 ReceivedBroadcasts 2254
scalar SingleAttackerV2VScenario.node[25].nic.mac1609_4 SentPackets 127
scalar SingleAttackerV2VScenario.node[25].nic.mac1609_4 SentAcknowledgements 0
scalar SingleAttackerV2VScenario.node[25].nic.mac1609_4 RetriesExceeded 0
scalar SingleAttackerV2VScenario.node[25].nic.mac1609_4 SNIRLostPackets 299
scalar SingleAttackerV2VScenario.node[25].nic.mac1609_4 RXTXLostPackets 0
scalar SingleAttackerV2VScenario.node[25].nic.mac1609_4 TotalLostPackets 299
scalar SingleAttackerV2VScenario.node[25].nic.mac1609_4 DroppedPacketsInMac 0
scalar SingleAttackerV2VScenario.node[25].nic.mac1609_4 TooLittleTime 0
scalar SingleAttackerV2VScenario.node[25].nic.mac1609_4 TimesIntoBackoff 127
scalar SingleAttackerV2VScenario.node[25].nic.mac1609_4 SlotsBackoff 186
scalar SingleAttackerV2VScenario.node[25].nic.mac1609_4 NumInternalContention 0
scalar SingleAttackerV2VScenario.node[25].nic.mac1609_4 totalBusyTime 0.278847
scalar SingleAttackerV2VScenario.node[25].nic.mac1609_4 NodeDownCount 0
scalar SingleAttackerV2VScenario.node[25].nic.mac1609_4 retriesExceeded:count 0
attr source org_car2x_veins_modules_mac_sigRetriesExceeded
scalar SingleAttackerV2VScenario.node[25].nic.mac1609_4 sentAcks:count 0
attr source org_car2x_veins_modules_mac_sigSentAck
scalar SingleAttackerV2VScenario.node[25].nic.mac1609_4 sentPackets:count 127
attr source org_car2x_veins_modules_mac_sigSentPacket
scalar SingleAttackerV2VScenario.node[25].nic.mac1609_4 collisions:count 0
attr source org_car2x_veins_modules_mac_sigCollision
scalar SingleAttackerV2VScenario.node[25].nic.mac1609_4 channelBusy:timeavg 0.0021956456692913
attr source org_car2x_veins_modules_mac_sigChannelBusy
scalar SingleAttackerV2VScenario.node[25].veinsmobility startTime 73
scalar SingleAttackerV2VScenario.node[25].veinsmobility totalTime 127
scalar SingleAttackerV2VScenario.node[25].veinsmobility stopTime 200
scalar SingleAttackerV2VScenario.node[25].veinsmobility minSpeed 3.951523708284
scalar SingleAttackerV2VScenario.node[25].veinsmobility maxSpeed 13.999659525047
scalar SingleAttackerV2VScenario.node[25].veinsmobility totalDistance 1614.1669397916
scalar SingleAttackerV2VScenario.node[25].veinsmobility totalCO2Emission 295.48780281564
scalar SingleAttackerV2VScenario.node[26].status nodeStatusData:count 0
attr source nodeStatusChanged
scalar SingleAttackerV2VScenario.node[26].appl generatedWSMs 0
scalar SingleAttackerV2VScenario.node[26].appl receivedWSMs 0
scalar SingleAttackerV2VScenario.node[26].appl generatedBSMs 124
scalar SingleAttackerV2VScenario.node[26].appl receivedBSMs 2253
scalar SingleAttackerV2VScenario.node[26].appl generatedWSAs 0
scalar SingleAttackerV2VScenario.node[26].appl receivedWSAs 0
scalar SingleAttackerV2VScenario.node[26].nic.phy80211p busyTime 0.0021194193548387
scalar SingleAttackerV2VScenario.node[26].nic.mac1609_4 ReceivedUnicastPackets 0
scalar SingleAttackerV2VScenario.node[26].nic.mac1609_4 ReceivedBroadcasts 2253
scalar SingleAttackerV2VScenario.node[26].nic.mac1609_4 SentPackets 124
scalar SingleAttackerV2VScenario.node[26].nic.mac1609_4 SentAcknowledgements 0
scalar SingleAttackerV2VScenario.node[26].nic.mac1609_4 RetriesExceeded 0
scalar SingleAttackerV2VScenario.node[26].nic.mac1609_4 SNIRLostPackets 274
scalar SingleAttackerV2VScenario.node[26].nic.mac1609_4 RXTXLostPackets 0
[...]
scalar SingleAttackerV2VScenario.node[61].appl generatedWSAs 0
scalar SingleAttackerV2VScenario.node[61].appl receivedWSAs 0
scalar SingleAttackerV2VScenario.node[61].nic.phy80211p busyTime 0.0016585263157895
scalar SingleAttackerV2VScenario.node[61].nic.mac1609_4 ReceivedUnicastPackets 0
scalar SingleAttackerV2VScenario.node[61].nic.mac1609_4 ReceivedBroadcasts 280
scalar SingleAttackerV2VScenario.node[61].nic.mac1609_4 SentPackets 19
scalar SingleAttackerV2VScenario.node[61].nic.mac1609_4 SentAcknowledgements 0
scalar SingleAttackerV2VScenario.node[61].nic.mac1609_4 RetriesExceeded 0
scalar SingleAttackerV2VScenario.node[61].nic.mac1609_4 SNIRLostPackets 23
scalar SingleAttackerV2VScenario.node[61].nic.mac1609_4 RXTXLostPackets 0
scalar SingleAttackerV2VScenario.node[61].nic.mac1609_4 TotalLostPackets 23
scalar SingleAttackerV2VScenario.node[61].nic.mac1609_4 DroppedPacketsInMac 0
scalar SingleAttackerV2VScenario.node[61].nic.mac1609_4 TooLittleTime 0
scalar SingleAttackerV2VScenario.node[61].nic.mac1609_4 TimesIntoBackoff 19
scalar SingleAttackerV2VScenario.node[61].nic.mac1609_4 SlotsBackoff 36
scalar SingleAttackerV2VScenario.node[61].nic.mac1609_4 NumInternalContention 0
scalar SingleAttackerV2VScenario.node[61].nic.mac1609_4 totalBusyTime 0.033507
scalar SingleAttackerV2VScenario.node[61].nic.mac1609_4 NodeDownCount 0
scalar SingleAttackerV2VScenario.node[61].nic.mac1609_4 retriesExceeded:count 0
attr source org_car2x_veins_modules_mac_sigRetriesExceeded
scalar SingleAttackerV2VScenario.node[61].nic.mac1609_4 sentAcks:count 0
attr source org_car2x_veins_modules_mac_sigSentAck
scalar SingleAttackerV2VScenario.node[61].nic.mac1609_4 sentPackets:count 19
attr source org_car2x_veins_modules_mac_sigSentPacket
scalar SingleAttackerV2VScenario.node[61].nic.mac1609_4 collisions:count 0
attr source org_car2x_veins_modules_mac_sigCollision
scalar SingleAttackerV2VScenario.node[61].nic.mac1609_4 channelBusy:timeavg 0.0017635263157895
attr source org_car2x_veins_modules_mac_sigChannelBusy
scalar SingleAttackerV2VScenario.node[61].veinsmobility startTime 181
scalar SingleAttackerV2VScenario.node[61].veinsmobility totalTime 19
scalar SingleAttackerV2VScenario.node[61].veinsmobility stopTime 200
scalar SingleAttackerV2VScenario.node[61].veinsmobility minSpeed 3.7929458832696
scalar SingleAttackerV2VScenario.node[61].veinsmobility maxSpeed 12.84857585862
scalar SingleAttackerV2VScenario.node[61].veinsmobility totalDistance 206.57569161638
scalar SingleAttackerV2VScenario.node[61].veinsmobility totalCO2Emission 48.749092181783
scalar SingleAttackerV2VScenario.node[62].status nodeStatusData:count 0
attr source nodeStatusChanged
scalar SingleAttackerV2VScenario.node[62].appl generatedWSMs 0
scalar SingleAttackerV2VScenario.node[62].appl receivedWSMs 0
scalar SingleAttackerV2VScenario.node[62].appl generatedBSMs 16
scalar SingleAttackerV2VScenario.node[62].appl receivedBSMs 237
scalar SingleAttackerV2VScenario.node[62].appl generatedWSAs 0
scalar SingleAttackerV2VScenario.node[62].appl receivedWSAs 0
scalar SingleAttackerV2VScenario.node[62].nic.phy80211p busyTime 0.0016445
scalar SingleAttackerV2VScenario.node[62].nic.mac1609_4 ReceivedUnicastPackets 0
scalar SingleAttackerV2VScenario.node[62].nic.mac1609_4 ReceivedBroadcasts 237
scalar SingleAttackerV2VScenario.node[62].nic.mac1609_4 SentPackets 16
scalar SingleAttackerV2VScenario.node[62].nic.mac1609_4 SentAcknowledgements 0
scalar SingleAttackerV2VScenario.node[62].nic.mac1609_4 RetriesExceeded 0
scalar SingleAttackerV2VScenario.node[62].nic.mac1609_4 SNIRLostPackets 16
scalar SingleAttackerV2VScenario.node[62].nic.mac1609_4 RXTXLostPackets 0
scalar SingleAttackerV2VScenario.node[62].nic.mac1609_4 TotalLostPackets 16
scalar SingleAttackerV2VScenario.node[62].nic.mac1609_4 DroppedPacketsInMac 0
scalar SingleAttackerV2VScenario.node[62].nic.mac1609_4 TooLittleTime 0
scalar SingleAttackerV2VScenario.node[62].nic.mac1609_4 TimesIntoBackoff 16
scalar SingleAttackerV2VScenario.node[62].nic.mac1609_4 SlotsBackoff 31
scalar SingleAttackerV2VScenario.node[62].nic.mac1609_4 NumInternalContention 0
scalar SingleAttackerV2VScenario.node[62].nic.mac1609_4 totalBusyTime 0.027992
scalar SingleAttackerV2VScenario.node[62].nic.mac1609_4 NodeDownCount 0
scalar SingleAttackerV2VScenario.node[62].nic.mac1609_4 retriesExceeded:count 0
attr source org_car2x_veins_modules_mac_sigRetriesExceeded
scalar SingleAttackerV2VScenario.node[62].nic.mac1609_4 sentAcks:count 0
attr source org_car2x_veins_modules_mac_sigSentAck
scalar SingleAttackerV2VScenario.node[62].nic.mac1609_4 sentPackets:count 16
attr source org_car2x_veins_modules_mac_sigSentPacket
scalar SingleAttackerV2VScenario.node[62].nic.mac1609_4 collisions:count 0
attr source org_car2x_veins_modules_mac_sigCollision
scalar SingleAttackerV2VScenario.node[62].nic.mac1609_4 channelBusy:timeavg 0.0017495
attr source org_car2x_veins_modules_mac_sigChannelBusy
scalar SingleAttackerV2VScenario.node[62].veinsmobility startTime 184
scalar SingleAttackerV2VScenario.node[62].veinsmobility totalTime 16
scalar SingleAttackerV2VScenario.node[62].veinsmobility stopTime 200
scalar SingleAttackerV2VScenario.node[62].veinsmobility minSpeed 3.9643027338979
scalar SingleAttackerV2VScenario.node[62].veinsmobility maxSpeed 13.381397598181
scalar SingleAttackerV2VScenario.node[62].veinsmobility totalDistance 179.76706263353
scalar SingleAttackerV2VScenario.node[62].veinsmobility totalCO2Emission 48.669755552151
scalar SingleAttackerV2VScenario.node[63].status nodeStatusData:count 0
attr source nodeStatusChanged
scalar SingleAttackerV2VScenario.node[63].appl generatedWSMs 0
scalar SingleAttackerV2VScenario.node[63].appl receivedWSMs 0
scalar SingleAttackerV2VScenario.node[63].appl generatedBSMs 13
scalar SingleAttackerV2VScenario.node[63].appl receivedBSMs 204
scalar SingleAttackerV2VScenario.node[63].appl generatedWSAs 0
scalar SingleAttackerV2VScenario.node[63].appl receivedWSAs 0
scalar SingleAttackerV2VScenario.node[63].nic.phy80211p busyTime 0.001744
scalar SingleAttackerV2VScenario.node[63].nic.mac1609_4 ReceivedUnicastPackets 0
scalar SingleAttackerV2VScenario.node[63].nic.mac1609_4 ReceivedBroadcasts 204
scalar SingleAttackerV2VScenario.node[63].nic.mac1609_4 SentPackets 13
scalar SingleAttackerV2VScenario.node[63].nic.mac1609_4 SentAcknowledgements 0
scalar SingleAttackerV2VScenario.node[63].nic.mac1609_4 RetriesExceeded 0
scalar SingleAttackerV2VScenario.node[63].nic.mac1609_4 SNIRLostPackets 14
scalar SingleAttackerV2VScenario.node[63].nic.mac1609_4 RXTXLostPackets 0
scalar SingleAttackerV2VScenario.node[63].nic.mac1609_4 TotalLostPackets 14
scalar SingleAttackerV2VScenario.node[63].nic.mac1609_4 DroppedPacketsInMac 0
scalar SingleAttackerV2VScenario.node[63].nic.mac1609_4 TooLittleTime 0
scalar SingleAttackerV2VScenario.node[63].nic.mac1609_4 TimesIntoBackoff 13
scalar SingleAttackerV2VScenario.node[63].nic.mac1609_4 SlotsBackoff 22
scalar SingleAttackerV2VScenario.node[63].nic.mac1609_4 NumInternalContention 0
scalar SingleAttackerV2VScenario.node[63].nic.mac1609_4 totalBusyTime 0.024037
scalar SingleAttackerV2VScenario.node[63].nic.mac1609_4 NodeDownCount 0
scalar SingleAttackerV2VScenario.node[63].nic.mac1609_4 retriesExceeded:count 0
attr source org_car2x_veins_modules_mac_sigRetriesExceeded
scalar SingleAttackerV2VScenario.node[63].nic.mac1609_4 sentAcks:count 0
attr source org_car2x_veins_modules_mac_sigSentAck
scalar SingleAttackerV2VScenario.node[63].nic.mac1609_4 sentPackets:count 13
attr source org_car2x_veins_modules_mac_sigSentPacket
scalar SingleAttackerV2VScenario.node[63].nic.mac1609_4 collisions:count 0
attr source org_car2x_veins_modules_mac_sigCollision
scalar SingleAttackerV2VScenario.node[63].nic.mac1609_4 channelBusy:timeavg 0.001849
attr source org_car2x_veins_modules_mac_sigChannelBusy
scalar SingleAttackerV2VScenario.node[63].veinsmobility startTime 187
scalar SingleAttackerV2VScenario.node[63].veinsmobility totalTime 13
scalar SingleAttackerV2VScenario.node[63].veinsmobility stopTime 200
scalar SingleAttackerV2VScenario.node[63].veinsmobility minSpeed 3.9763429005056
scalar SingleAttackerV2VScenario.node[63].veinsmobility maxSpeed 13.667736121664
scalar SingleAttackerV2VScenario.node[63].veinsmobility totalDistance 141.82023789111
scalar SingleAttackerV2VScenario.node[63].veinsmobility totalCO2Emission 44.994078679557
scalar SingleAttackerV2VScenario.node[64].status nodeStatusData:count 0
attr source nodeStatusChanged
scalar SingleAttackerV2VScenario.node[64].appl generatedWSMs 0
scalar SingleAttackerV2VScenario.node[64].appl receivedWSMs 0
scalar SingleAttackerV2VScenario.node[64].appl generatedBSMs 10
scalar SingleAttackerV2VScenario.node[64].appl receivedBSMs 171
scalar SingleAttackerV2VScenario.node[64].appl generatedWSAs 0
scalar SingleAttackerV2VScenario.node[64].appl receivedWSAs 0
scalar SingleAttackerV2VScenario.node[64].nic.phy80211p busyTime 0.0018408
scalar SingleAttackerV2VScenario.node[64].nic.mac1609_4 ReceivedUnicastPackets 0
scalar SingleAttackerV2VScenario.node[64].nic.mac1609_4 ReceivedBroadcasts 171
scalar SingleAttackerV2VScenario.node[64].nic.mac1609_4 SentPackets 10
scalar SingleAttackerV2VScenario.node[64].nic.mac1609_4 SentAcknowledgements 0
scalar SingleAttackerV2VScenario.node[64].nic.mac1609_4 RetriesExceeded 0
scalar SingleAttackerV2VScenario.node[64].nic.mac1609_4 SNIRLostPackets 6
scalar SingleAttackerV2VScenario.node[64].nic.mac1609_4 RXTXLostPackets 0
scalar SingleAttackerV2VScenario.node[64].nic.mac1609_4 TotalLostPackets 6
scalar SingleAttackerV2VScenario.node[64].nic.mac1609_4 DroppedPacketsInMac 0
scalar SingleAttackerV2VScenario.node[64].nic.mac1609_4 TooLittleTime 0
scalar SingleAttackerV2VScenario.node[64].nic.mac1609_4 TimesIntoBackoff 10
scalar SingleAttackerV2VScenario.node[64].nic.mac1609_4 SlotsBackoff 18
scalar SingleAttackerV2VScenario.node[64].nic.mac1609_4 NumInternalContention 0
scalar SingleAttackerV2VScenario.node[64].nic.mac1609_4 totalBusyTime 0.019458
scalar SingleAttackerV2VScenario.node[64].nic.mac1609_4 NodeDownCount 0
scalar SingleAttackerV2VScenario.node[64].nic.mac1609_4 retriesExceeded:count 0
attr source org_car2x_veins_modules_mac_sigRetriesExceeded
scalar SingleAttackerV2VScenario.node[64].nic.mac1609_4 sentAcks:count 0
attr source org_car2x_veins_modules_mac_sigSentAck
scalar SingleAttackerV2VScenario.node[64].nic.mac1609_4 sentPackets:count 10
attr source org_car2x_veins_modules_mac_sigSentPacket
scalar SingleAttackerV2VScenario.node[64].nic.mac1609_4 collisions:count 0
attr source org_car2x_veins_modules_mac_sigCollision
scalar SingleAttackerV2VScenario.node[64].nic.mac1609_4 channelBusy:timeavg 0.0019458
attr source org_car2x_veins_modules_mac_sigChannelBusy
scalar SingleAttackerV2VScenario.node[64].veinsmobility startTime 190
scalar SingleAttackerV2VScenario.node[64].veinsmobility totalTime 10
scalar SingleAttackerV2VScenario.node[64].veinsmobility stopTime 200
scalar SingleAttackerV2VScenario.node[64].veinsmobility minSpeed 4.0010424112291
scalar SingleAttackerV2VScenario.node[64].veinsmobility maxSpeed 13.977768345661
scalar SingleAttackerV2VScenario.node[64].veinsmobility totalDistance 105.00141460445
scalar SingleAttackerV2VScenario.node[64].veinsmobility totalCO2Emission 40.578044894371
scalar SingleAttackerV2VScenario.node[65].status nodeStatusData:count 0
attr source nodeStatusChanged
scalar SingleAttackerV2VScenario.node[65].appl generatedWSMs 0
scalar SingleAttackerV2VScenario.node[65].appl receivedWSMs 0
scalar SingleAttackerV2VScenario.node[65].appl generatedBSMs 7
scalar SingleAttackerV2VScenario.node[65].appl receivedBSMs 128
scalar SingleAttackerV2VScenario.node[65].appl generatedWSAs 0
scalar SingleAttackerV2VScenario.node[65].appl receivedWSAs 0
scalar SingleAttackerV2VScenario.node[65].nic.phy80211p busyTime 0.0020205714285714
scalar SingleAttackerV2VScenario.node[65].nic.mac1609_4 ReceivedUnicastPackets 0
scalar SingleAttackerV2VScenario.node[65].nic.mac1609_4 ReceivedBroadcasts 128
scalar SingleAttackerV2VScenario.node[65].nic.mac1609_4 SentPackets 7
scalar SingleAttackerV2VScenario.node[65].nic.mac1609_4 SentAcknowledgements 0
scalar SingleAttackerV2VScenario.node[65].nic.mac1609_4 RetriesExceeded 0
scalar SingleAttackerV2VScenario.node[65].nic.mac1609_4 SNIRLostPackets 8
scalar SingleAttackerV2VScenario.node[65].nic.mac1609_4 RXTXLostPackets 0
scalar SingleAttackerV2VScenario.node[65].nic.mac1609_4 TotalLostPackets 8
scalar SingleAttackerV2VScenario.node[65].nic.mac1609_4 DroppedPacketsInMac 0
scalar SingleAttackerV2VScenario.node[65].nic.mac1609_4 TooLittleTime 0
scalar SingleAttackerV2VScenario.node[65].nic.mac1609_4 TimesIntoBackoff 7
scalar SingleAttackerV2VScenario.node[65].nic.mac1609_4 SlotsBackoff 6
scalar SingleAttackerV2VScenario.node[65].nic.mac1609_4 NumInternalContention 0
scalar SingleAttackerV2VScenario.node[65].nic.mac1609_4 totalBusyTime 0.014879
scalar SingleAttackerV2VScenario.node[65].nic.mac1609_4 NodeDownCount 0
scalar SingleAttackerV2VScenario.node[65].nic.mac1609_4 retriesExceeded:count 0
attr source org_car2x_veins_modules_mac_sigRetriesExceeded
scalar SingleAttackerV2VScenario.node[65].nic.mac1609_4 sentAcks:count 0
attr source org_car2x_veins_modules_mac_sigSentAck
scalar SingleAttackerV2VScenario.node[65].nic.mac1609_4 sentPackets:count 7
attr source org_car2x_veins_modules_mac_sigSentPacket
scalar SingleAttackerV2VScenario.node[65].nic.mac1609_4 collisions:count 0
attr source org_car2x_veins_modules_mac_sigCollision
scalar SingleAttackerV2VScenario.node[65].nic.mac1609_4 channelBusy:timeavg 0.0021255714285714
attr source org_car2x_veins_modules_mac_sigChannelBusy
scalar SingleAttackerV2VScenario.node[65].veinsmobility startTime 193
scalar SingleAttackerV2VScenario.node[65].veinsmobility totalTime 7
scalar SingleAttackerV2VScenario.node[65].veinsmobility stopTime 200
scalar SingleAttackerV2VScenario.node[65].veinsmobility minSpeed 4.0963891555032
scalar SingleAttackerV2VScenario.node[65].veinsmobility maxSpeed 13.89932602556
scalar SingleAttackerV2VScenario.node[65].veinsmobility totalDistance 62.429312282623
scalar SingleAttackerV2VScenario.node[65].veinsmobility totalCO2Emission 33.963789179338
scalar SingleAttackerV2VScenario.node[66].status nodeStatusData:count 0
attr source nodeStatusChanged
scalar SingleAttackerV2VScenario.node[66].appl generatedWSMs 0
scalar SingleAttackerV2VScenario.node[66].appl receivedWSMs 0
scalar SingleAttackerV2VScenario.node[66].appl generatedBSMs 4
scalar SingleAttackerV2VScenario.node[66].appl receivedBSMs 70
scalar SingleAttackerV2VScenario.node[66].appl generatedWSAs 0
scalar SingleAttackerV2VScenario.node[66].appl receivedWSAs 0
scalar SingleAttackerV2VScenario.node[66].nic.phy80211p busyTime 0.002158
scalar SingleAttackerV2VScenario.node[66].nic.mac1609_4 ReceivedUnicastPackets 0
scalar SingleAttackerV2VScenario.node[66].nic.mac1609_4 ReceivedBroadcasts 70
scalar SingleAttackerV2VScenario.node[66].nic.mac1609_4 SentPackets 4
scalar SingleAttackerV2VScenario.node[66].nic.mac1609_4 SentAcknowledgements 0
scalar SingleAttackerV2VScenario.node[66].nic.mac1609_4 RetriesExceeded 0
scalar SingleAttackerV2VScenario.node[66].nic.mac1609_4 SNIRLostPackets 13
scalar SingleAttackerV2VScenario.node[66].nic.mac1609_4 RXTXLostPackets 0
scalar SingleAttackerV2VScenario.node[66].nic.mac1609_4 TotalLostPackets 13
scalar SingleAttackerV2VScenario.node[66].nic.mac1609_4 DroppedPacketsInMac 0
scalar SingleAttackerV2VScenario.node[66].nic.mac1609_4 TooLittleTime 0
scalar SingleAttackerV2VScenario.node[66].nic.mac1609_4 TimesIntoBackoff 4
scalar SingleAttackerV2VScenario.node[66].nic.mac1609_4 SlotsBackoff 2
scalar SingleAttackerV2VScenario.node[66].nic.mac1609_4 NumInternalContention 0
scalar SingleAttackerV2VScenario.node[66].nic.mac1609_4 totalBusyTime 0.009052
scalar SingleAttackerV2VScenario.node[66].nic.mac1609_4 NodeDownCount 0
scalar SingleAttackerV2VScenario.node[66].nic.mac1609_4 retriesExceeded:count 0
attr source org_car2x_veins_modules_mac_sigRetriesExceeded
scalar SingleAttackerV2VScenario.node[66].nic.mac1609_4 sentAcks:count 0
attr source org_car2x_veins_modules_mac_sigSentAck
scalar SingleAttackerV2VScenario.node[66].nic.mac1609_4 sentPackets:count 4
attr source org_car2x_veins_modules_mac_sigSentPacket
scalar SingleAttackerV2VScenario.node[66].nic.mac1609_4 collisions:count 0
attr source org_car2x_veins_modules_mac_sigCollision
scalar SingleAttackerV2VScenario.node[66].nic.mac1609_4 channelBusy:timeavg 0.002263
attr source org_car2x_veins_modules_mac_sigChannelBusy
scalar SingleAttackerV2VScenario.node[66].veinsmobility startTime 196
scalar SingleAttackerV2VScenario.node[66].veinsmobility totalTime 4
scalar SingleAttackerV2VScenario.node[66].veinsmobility stopTime 200
scalar SingleAttackerV2VScenario.node[66].veinsmobility minSpeed 3.8129964193388
scalar SingleAttackerV2VScenario.node[66].veinsmobility maxSpeed 9.5155542239978
scalar SingleAttackerV2VScenario.node[66].veinsmobility totalDistance 23.170299826305
scalar SingleAttackerV2VScenario.node[66].veinsmobility totalCO2Emission 15.032761093514
scalar SingleAttackerV2VScenario.node[67].status nodeStatusData:count 0
attr source nodeStatusChanged
scalar SingleAttackerV2VScenario.node[67].appl generatedWSMs 0
scalar SingleAttackerV2VScenario.node[67].appl receivedWSMs 0
scalar SingleAttackerV2VScenario.node[67].appl generatedBSMs 1
scalar SingleAttackerV2VScenario.node[67].appl receivedBSMs 19
scalar SingleAttackerV2VScenario.node[67].appl generatedWSAs 0
scalar SingleAttackerV2VScenario.node[67].appl receivedWSAs 0
scalar SingleAttackerV2VScenario.node[67].nic.phy80211p busyTime 0.002288
scalar SingleAttackerV2VScenario.node[67].nic.mac1609_4 ReceivedUnicastPackets 0
scalar SingleAttackerV2VScenario.node[67].nic.mac1609_4 ReceivedBroadcasts 19
scalar SingleAttackerV2VScenario.node[67].nic.mac1609_4 SentPackets 1
scalar SingleAttackerV2VScenario.node[67].nic.mac1609_4 SentAcknowledgements 0
scalar SingleAttackerV2VScenario.node[67].nic.mac1609_4 RetriesExceeded 0
scalar SingleAttackerV2VScenario.node[67].nic.mac1609_4 SNIRLostPackets 3
scalar SingleAttackerV2VScenario.node[67].nic.mac1609_4 RXTXLostPackets 0
scalar SingleAttackerV2VScenario.node[67].nic.mac1609_4 TotalLostPackets 3
scalar SingleAttackerV2VScenario.node[67].nic.mac1609_4 DroppedPacketsInMac 0
scalar SingleAttackerV2VScenario.node[67].nic.mac1609_4 TooLittleTime 0
scalar SingleAttackerV2VScenario.node[67].nic.mac1609_4 TimesIntoBackoff 1
scalar SingleAttackerV2VScenario.node[67].nic.mac1609_4 SlotsBackoff 3
scalar SingleAttackerV2VScenario.node[67].nic.mac1609_4 NumInternalContention 0
scalar SingleAttackerV2VScenario.node[67].nic.mac1609_4 totalBusyTime 0.002393
scalar SingleAttackerV2VScenario.node[67].nic.mac1609_4 NodeDownCount 0
scalar SingleAttackerV2VScenario.node[67].nic.mac1609_4 retriesExceeded:count 0
attr source org_car2x_veins_modules_mac_sigRetriesExceeded
scalar SingleAttackerV2VScenario.node[67].nic.mac1609_4 sentAcks:count 0
attr source org_car2x_veins_modules_mac_sigSentAck
scalar SingleAttackerV2VScenario.node[67].nic.mac1609_4 sentPackets:count 1
attr source org_car2x_veins_modules_mac_sigSentPacket
scalar SingleAttackerV2VScenario.node[67].nic.mac1609_4 collisions:count 0
attr source org_car2x_veins_modules_mac_sigCollision
scalar SingleAttackerV2VScenario.node[67].nic.mac1609_4 channelBusy:timeavg 0.002393
attr source org_car2x_veins_modules_mac_sigChannelBusy
scalar SingleAttackerV2VScenario.node[67].veinsmobility startTime 199
scalar SingleAttackerV2VScenario.node[67].veinsmobility totalTime 1
scalar SingleAttackerV2VScenario.node[67].veinsmobility stopTime 200
scalar SingleAttackerV2VScenario.node[67].veinsmobility minSpeed 4.0133306786479
scalar SingleAttackerV2VScenario.node[67].veinsmobility maxSpeed 4.0133306786479
scalar SingleAttackerV2VScenario.node[67].veinsmobility totalDistance 3.1013316946711
scalar SingleAttackerV2VScenario.node[67].veinsmobility totalCO2Emission 0

