version 2
run WithBeaconing-0-20230724-01:39:49-25449
attr configname WithBeaconing
attr datetime 20230724-01:39:49
attr experiment WithBeaconing
attr inifile omnetpp_savs.ini
attr iterationvars ""
attr iterationvarsf ""
attr measurement ""
attr network SingleAttackerV2VScenario
attr processid 25449
attr repetition 0
attr replication #0
attr resultdir results
attr runnumber 0
attr seedset 0
param *.node[*].appl.sendBeacons true
param *.scenarioManager.script "xmldoc(\"scenario.xml\")"
param *.playgroundSizeX 2500m
param *.playgroundSizeY 2500m
param *.playgroundSizeZ 50m
param **.hasStatus true
param *.annotations.draw true
param *.obstacles.obstacles "xmldoc(\"config.xml\", \"//AnalogueModel[@type='SimpleObstacleShadowing']/obstacles\")"
param *.manager.updateInterval 1s
param *.manager.host "\"localhost\""
param *.manager.port 9999
param *.manager.autoShutdown true
param *.manager.launchConfig "xmldoc(\"erlangen.launchd.xml\")"
param *.connectionManager.sendDirect true
param *.connectionManager.maxInterfDist 2600m
param *.connectionManager.drawMaxIntfDist false
param *.**.nic.mac1609_4.useServiceChannel false
param *.**.nic.mac1609_4.txPower 20mW
param *.**.nic.mac1609_4.bitrate 6Mbps
param *.**.nic.phy80211p.minPowerLevel -110dBm
param *.**.nic.mac1609_4.useAcks true
param *.**.nic.phy80211p.useNoiseFloor true
param *.**.nic.phy80211p.noiseFloor -98dBm
param *.**.nic.phy80211p.decider "xmldoc(\"config.xml\")"
param *.**.nic.phy80211p.analogueModels "xmldoc(\"config.xml\")"
param *.**.nic.phy80211p.usePropagationDelay true
param *.**.nic.phy80211p.antenna "xmldoc(\"antenna.xml\", \"/root/Antenna[@id='monopole']\")"
param *.node[*].nic.phy80211p.antennaOffsetY "0 m"
param *.node[*].nic.phy80211p.antennaOffsetZ "1.895 m"
param *.attacker[*].nic.phy80211p.antennaOffsetY "0 m"
param *.attacker[*].nic.phy80211p.antennaOffsetZ "1.895 m"
param *.manager.moduleType "\"vtype1=org.car2x.veins.nodes.Car *=org.car2x.veins.nodes.Car\""
param *.manager.moduleName "\"vtype1=attacker *=node\""
param *.node[*].applType "\"TraCIDemo11p\""
param *.node[*].appl.headerLength "80 bit"
param *.node[*].appl.sendBeacons true
param *.node[*].appl.dataOnSch false
param *.node[*].appl.beaconInterval 1s
param *.attacker[*].applType "\"TraCIV2Vp\""
param *.attacker[*].appl.headerLength "80 bit"
param *.attacker[*].appl.sendBeacons true
param *.attacker[*].appl.dataOnSch false
param *.attacker[*].appl.beaconInterval 1s
param *.node[*].veinsmobility.x 0
param *.node[*].veinsmobility.y 0
param *.node[*].veinsmobility.z 0
param *.node[*].veinsmobility.setHostSpeed false
param *.attacker[*].veinsmobility.x 0
param *.attacker[*].veinsmobility.y 0
param *.attacker[*].veinsmobility.z 0
param *.attacker[*].veinsmobility.setHostSpeed false

vector 0 SingleAttackerV2VScenario.node[0].veinsmobility posx ETV
vector 1 SingleAttackerV2VScenario.node[0].veinsmobility posy ETV
vector 2 SingleAttackerV2VScenario.node[0].veinsmobility speed ETV
vector 3 SingleAttackerV2VScenario.node[0].veinsmobility acceleration ETV
vector 4 SingleAttackerV2VScenario.node[0].veinsmobility co2emission ETV
vector 5 SingleAttackerV2VScenario.node[1].veinsmobility posx ETV
vector 6 SingleAttackerV2VScenario.node[1].veinsmobility posy ETV
vector 7 SingleAttackerV2VScenario.node[1].veinsmobility speed ETV
vector 8 SingleAttackerV2VScenario.node[1].veinsmobility acceleration ETV
vector 9 SingleAttackerV2VScenario.node[1].veinsmobility co2emission ETV
vector 10 SingleAttackerV2VScenario.node[2].veinsmobility posx ETV
vector 11 SingleAttackerV2VScenario.node[2].veinsmobility posy ETV
vector 12 SingleAttackerV2VScenario.node[2].veinsmobility speed ETV
vector 13 SingleAttackerV2VScenario.node[2].veinsmobility acceleration ETV
vector 14 SingleAttackerV2VScenario.node[2].veinsmobility co2emission ETV
vector 15 SingleAttackerV2VScenario.node[3].veinsmobility posx ETV
vector 16 SingleAttackerV2VScenario.node[3].veinsmobility posy ETV
vector 17 SingleAttackerV2VScenario.node[3].veinsmobility speed ETV
vector 18 SingleAttackerV2VScenario.node[3].veinsmobility acceleration ETV
vector 19 SingleAttackerV2VScenario.node[3].veinsmobility co2emission ETV
vector 20 SingleAttackerV2VScenario.node[4].veinsmobility posx ETV
vector 21 SingleAttackerV2VScenario.node[4].veinsmobility posy ETV
vector 22 SingleAttackerV2VScenario.node[4].veinsmobility speed ETV
vector 23 SingleAttackerV2VScenario.node[4].veinsmobility acceleration ETV
vector 24 SingleAttackerV2VScenario.node[4].veinsmobility co2emission ETV
vector 25 SingleAttackerV2VScenario.node[5].veinsmobility posx ETV
vector 26 SingleAttackerV2VScenario.node[5].veinsmobility posy ETV
vector 27 SingleAttackerV2VScenario.node[5].veinsmobility speed ETV
vector 28 SingleAttackerV2VScenario.node[5].veinsmobility acceleration ETV
vector 29 SingleAttackerV2VScenario.node[5].veinsmobility co2emission ETV
vector 30 SingleAttackerV2VScenario.node[6].veinsmobility posx ETV
vector 31 SingleAttackerV2VScenario.node[6].veinsmobility posy ETV
vector 32 SingleAttackerV2VScenario.node[6].veinsmobility speed ETV
vector 33 SingleAttackerV2VScenario.node[6].veinsmobility acceleration ETV
vector 34 SingleAttackerV2VScenario.node[6].veinsmobility co2emission ETV
vector 35 SingleAttackerV2VScenario.node[7].veinsmobility posx ETV
vector 36 SingleAttackerV2VScenario.node[7].veinsmobility posy ETV
vector 37 SingleAttackerV2VScenario.node[7].veinsmobility speed ETV
vector 38 SingleAttackerV2VScenario.node[7].veinsmobility acceleration ETV
vector 39 SingleAttackerV2VScenario.node[7].veinsmobility co2emission ETV
vector 40 SingleAttackerV2VScenario.node[8].veinsmobility posx ETV
vector 41 SingleAttackerV2VScenario.node[8].veinsmobility posy ETV
vector 42 SingleAttackerV2VScenario.node[8].veinsmobility speed ETV
vector 43 SingleAttackerV2VScenario.node[8].veinsmobility acceleration ETV
vector 44 SingleAttackerV2VScenario.node[8].veinsmobility co2emission ETV
vector 45 SingleAttackerV2VScenario.node[9].veinsmobility posx ETV
vector 46 SingleAttackerV2VScenario.node[9].veinsmobility posy ETV
vector 47 SingleAttackerV2VScenario.node[9].veinsmobility speed ETV
vector 48 SingleAttackerV2VScenario.node[9].veinsmobility acceleration ETV
vector 49 SingleAttackerV2VScenario.node[9].veinsmobility co2emission ETV
vector 50 SingleAttackerV2VScenario.node[10].veinsmobility posx ETV
vector 51 SingleAttackerV2VScenario.node[10].veinsmobility posy ETV
vector 52 SingleAttackerV2VScenario.node[10].veinsmobility speed ETV
vector 53 SingleAttackerV2VScenario.node[10].veinsmobility acceleration ETV
vector 54 SingleAttackerV2VScenario.node[10].veinsmobility co2emission ETV
vector 55 SingleAttackerV2VScenario.node[11].veinsmobility posx ETV
vector 56 SingleAttackerV2VScenario.node[11].veinsmobility posy ETV
vector 57 SingleAttackerV2VScenario.node[6].nic.mac1609_4 droppedPacketStat:vector ETV
attr source org_car2x_veins_modules_mac_sigDroppedPacket
vector 58 SingleAttackerV2VScenario.node[7].nic.mac1609_4 droppedPacketStat:vector ETV
attr source org_car2x_veins_modules_mac_sigDroppedPacket
vector 59 SingleAttackerV2VScenario.node[1].nic.mac1609_4 droppedPacketStat:vector ETV
attr source org_car2x_veins_modules_mac_sigDroppedPacket
vector 60 SingleAttackerV2VScenario.node[8].nic.mac1609_4 droppedPacketStat:vector ETV
attr source org_car2x_veins_modules_mac_sigDroppedPacket
vector 61 SingleAttackerV2VScenario.node[0].nic.mac1609_4 droppedPacketStat:vector ETV
attr source org_car2x_veins_modules_mac_sigDroppedPacket
vector 62 SingleAttackerV2VScenario.node[11].veinsmobility speed ETV
vector 63 SingleAttackerV2VScenario.node[11].veinsmobility acceleration ETV
vector 64 SingleAttackerV2VScenario.node[11].veinsmobility co2emission ETV
vector 65 SingleAttackerV2VScenario.node[12].veinsmobility posx ETV
vector 66 SingleAttackerV2VScenario.node[12].veinsmobility posy ETV
vector 67 SingleAttackerV2VScenario.node[9].nic.mac1609_4 droppedPacketStat:vector ETV
attr source org_car2x_veins_modules_mac_sigDroppedPacket
vector 68 SingleAttackerV2VScenario.node[2].nic.mac1609_4 droppedPacketStat:vector ETV
attr source org_car2x_veins_modules_mac_sigDroppedPacket
vector 69 SingleAttackerV2VScenario.node[12].veinsmobility speed ETV
vector 70 SingleAttackerV2VScenario.node[12].veinsmobility acceleration ETV
vector 71 SingleAttackerV2VScenario.node[12].veinsmobility co2emission ETV
vector 72 SingleAttackerV2VScenario.node[13].veinsmobility posx ETV
vector 73 SingleAttackerV2VScenario.node[13].veinsmobility posy ETV
vector 74 SingleAttackerV2VScenario.node[13].veinsmobility speed ETV
vector 75 SingleAttackerV2VScenario.node[11].nic.mac1609_4 droppedPacketStat:vector ETV
attr source org_car2x_veins_modules_mac_sigDroppedPacket
vector 76 SingleAttackerV2VScenario.node[13].veinsmobility acceleration ETV
vector 77 SingleAttackerV2VScenario.node[13].veinsmobility co2emission ETV
vector 78 SingleAttackerV2VScenario.node[3].nic.mac1609_4 droppedPacketStat:vector ETV
attr source org_car2x_veins_modules_mac_sigDroppedPacket
vector 79 SingleAttackerV2VScenario.node[10].nic.mac1609_4 droppedPacketStat:vector ETV
attr source org_car2x_veins_modules_mac_sigDroppedPacket
vector 80 SingleAttackerV2VScenario.node[14].veinsmobility posx ETV
vector 81 SingleAttackerV2VScenario.node[14].veinsmobility posy ETV
vector 82 SingleAttackerV2VScenario.node[4].nic.mac1609_4 droppedPacketStat:vector ETV
attr source org_car2x_veins_modules_mac_sigDroppedPacket
vector 83 SingleAttackerV2VScenario.node[14].veinsmobility speed ETV
vector 84 SingleAttackerV2VScenario.node[14].veinsmobility acceleration ETV
vector 85 SingleAttackerV2VScenario.node[14].veinsmobility co2emission ETV
vector 86 SingleAttackerV2VScenario.node[15].veinsmobility posx ETV
vector 87 SingleAttackerV2VScenario.node[15].veinsmobility posy ETV
vector 88 SingleAttackerV2VScenario.node[12].nic.mac1609_4 droppedPacketStat:vector ETV
attr source org_car2x_veins_modules_mac_sigDroppedPacket
vector 89 SingleAttackerV2VScenario.node[5].nic.mac1609_4 droppedPacketStat:vector ETV
attr source org_car2x_veins_modules_mac_sigDroppedPacket
vector 90 SingleAttackerV2VScenario.node[15].veinsmobility speed ETV
vector 91 SingleAttackerV2VScenario.node[13].nic.mac1609_4 droppedPacketStat:vector ETV
attr source org_car2x_veins_modules_mac_sigDroppedPacket
vector 92 SingleAttackerV2VScenario.node[15].veinsmobility acceleration ETV
vector 93 SingleAttackerV2VScenario.node[15].veinsmobility co2emission ETV
vector 94 SingleAttackerV2VScenario.node[16].veinsmobility posx ETV
vector 95 SingleAttackerV2VScenario.node[16].veinsmobility posy ETV
vector 96 SingleAttackerV2VScenario.node[15].nic.mac1609_4 droppedPacketStat:vector ETV
attr source org_car2x_veins_modules_mac_sigDroppedPacket
vector 97 SingleAttackerV2VScenario.node[16].veinsmobility speed ETV
vector 98 SingleAttackerV2VScenario.node[16].nic.mac1609_4 droppedPacketStat:vector ETV
attr source org_car2x_veins_modules_mac_sigDroppedPacket
vector 99 SingleAttackerV2VScenario.node[16].veinsmobility acceleration ETV
vector 100 SingleAttackerV2VScenario.node[16].veinsmobility co2emission ETV
vector 101 SingleAttackerV2VScenario.node[17].veinsmobility posx ETV
vector 102 SingleAttackerV2VScenario.node[17].veinsmobility posy ETV
vector 103 SingleAttackerV2VScenario.node[17].nic.mac1609_4 droppedPacketStat:vector ETV
attr source org_car2x_veins_modules_mac_sigDroppedPacket
vector 104 SingleAttackerV2VScenario.node[17].veinsmobility speed ETV
vector 105 SingleAttackerV2VScenario.node[17].veinsmobility acceleration ETV
vector 106 SingleAttackerV2VScenario.node[17].veinsmobility co2emission ETV
vector 107 SingleAttackerV2VScenario.node[14].nic.mac1609_4 droppedPacketStat:vector ETV
attr source org_car2x_veins_modules_mac_sigDroppedPacket
vector 108 SingleAttackerV2VScenario.node[18].veinsmobility posx ETV
vector 109 SingleAttackerV2VScenario.node[18].veinsmobility posy ETV
vector 110 SingleAttackerV2VScenario.node[18].nic.mac1609_4 droppedPacketStat:vector ETV
attr source org_car2x_veins_modules_mac_sigDroppedPacket
vector 111 SingleAttackerV2VScenario.node[18].veinsmobility speed ETV
vector 112 SingleAttackerV2VScenario.attacker[19].veinsmobility posx ETV
vector 113 SingleAttackerV2VScenario.attacker[19].veinsmobility posy ETV
vector 114 SingleAttackerV2VScenario.node[18].veinsmobility acceleration ETV
vector 115 SingleAttackerV2VScenario.node[18].veinsmobility co2emission ETV
vector 116 SingleAttackerV2VScenario.attacker[19].nic.mac1609_4 droppedPacketStat:vector ETV
attr source org_car2x_veins_modules_mac_sigDroppedPacket
vector 117 SingleAttackerV2VScenario.node[20].veinsmobility posx ETV
vector 118 SingleAttackerV2VScenario.node[20].veinsmobility posy ETV
vector 119 SingleAttackerV2VScenario.attacker[19].veinsmobility speed ETV
vector 120 SingleAttackerV2VScenario.node[20].nic.mac1609_4 droppedPacketStat:vector ETV
attr source org_car2x_veins_modules_mac_sigDroppedPacket
vector 121 SingleAttackerV2VScenario.attacker[19].veinsmobility acceleration ETV
vector 122 SingleAttackerV2VScenario.attacker[19].veinsmobility co2emission ETV
vector 123 SingleAttackerV2VScenario.node[20].veinsmobility speed ETV
vector 124 SingleAttackerV2VScenario.node[20].veinsmobility acceleration ETV
vector 125 SingleAttackerV2VScenario.node[20].veinsmobility co2emission ETV
vector 126 SingleAttackerV2VScenario.node[21].veinsmobility posx ETV
vector 127 SingleAttackerV2VScenario.node[21].veinsmobility posy ETV
vector 128 SingleAttackerV2VScenario.node[21].nic.mac1609_4 droppedPacketStat:vector ETV
attr source org_car2x_veins_modules_mac_sigDroppedPacket
vector 129 SingleAttackerV2VScenario.node[21].veinsmobility speed ETV
vector 130 SingleAttackerV2VScenario.node[21].veinsmobility acceleration ETV
vector 131 SingleAttackerV2VScenario.node[21].veinsmobility co2emission ETV
vector 132 SingleAttackerV2VScenario.node[22].veinsmobility posx ETV
vector 133 SingleAttackerV2VScenario.node[22].veinsmobility posy ETV
vector 134 SingleAttackerV2VScenario.node[22].nic.mac1609_4 droppedPacketStat:vector ETV
attr source org_car2x_veins_modules_mac_sigDroppedPacket
vector 135 SingleAttackerV2VScenario.node[22].veinsmobility speed ETV
vector 136 SingleAttackerV2VScenario.node[22].veinsmobility acceleration ETV
vector 137 SingleAttackerV2VScenario.node[22].veinsmobility co2emission ETV
vector 138 SingleAttackerV2VScenario.node[23].veinsmobility posx ETV
vector 139 SingleAttackerV2VScenario.node[23].veinsmobility posy ETV
vector 140 SingleAttackerV2VScenario.node[23].veinsmobility speed ETV
vector 141 SingleAttackerV2VScenario.node[23].veinsmobility acceleration ETV
vector 142 SingleAttackerV2VScenario.node[23].veinsmobility co2emission ETV
vector 143 SingleAttackerV2VScenario.node[24].veinsmobility posx ETV
vector 144 SingleAttackerV2VScenario.node[24].veinsmobility posy ETV
vector 145 SingleAttackerV2VScenario.node[24].veinsmobility speed ETV
vector 146 SingleAttackerV2VScenario.node[24].veinsmobility acceleration ETV
vector 147 SingleAttackerV2VScenario.node[24].veinsmobility co2emission ETV
vector 148 SingleAttackerV2VScenario.node[25].veinsmobility posx ETV
vector 149 SingleAttackerV2VScenario.node[25].veinsmobility posy ETV
vector 150 SingleAttackerV2VScenario.node[25].veinsmobility speed ETV
vector 151 SingleAttackerV2VScenario.node[23].nic.mac1609_4 droppedPacketStat:vector ETV
attr source org_car2x_veins_modules_mac_sigDroppedPacket
vector 152 SingleAttackerV2VScenario.node[25].nic.mac1609_4 droppedPacketStat:vector ETV
attr source org_car2x_veins_modules_mac_sigDroppedPacket
vector 153 SingleAttackerV2VScenario.node[25].veinsmobility acceleration ETV
vector 154 SingleAttackerV2VScenario.node[25].veinsmobility co2emission ETV
vector 155 SingleAttackerV2VScenario.node[26].veinsmobility posx ETV
vector 156 SingleAttackerV2VScenario.node[26].veinsmobility posy ETV
vector 157 SingleAttackerV2VScenario.node[24].nic.mac1609_4 droppedPacketStat:vector ETV
attr source org_car2x_veins_modules_mac_sigDroppedPacket
vector 158 SingleAttackerV2VScenario.node[26].veinsmobility speed ETV
vector 159 SingleAttackerV2VScenario.node[26].veinsmobility acceleration ETV
vector 160 SingleAttackerV2VScenario.node[26].veinsmobility co2emission ETV
vector 161 SingleAttackerV2VScenario.node[26].nic.mac1609_4 droppedPacketStat:vector ETV
attr source org_car2x_veins_modules_mac_sigDroppedPacket
vector 162 SingleAttackerV2VScenario.node[27].veinsmobility posx ETV
vector 163 SingleAttackerV2VScenario.node[27].veinsmobility posy ETV
vector 164 SingleAttackerV2VScenario.node[27].veinsmobility speed ETV
vector 165 SingleAttackerV2VScenario.node[27].veinsmobility acceleration ETV
vector 166 SingleAttackerV2VScenario.node[27].veinsmobility co2emission ETV
vector 167 SingleAttackerV2VScenario.node[28].veinsmobility posx ETV
vector 168 SingleAttackerV2VScenario.node[28].veinsmobility posy ETV
vector 169 SingleAttackerV2VScenario.node[27].nic.mac1609_4 droppedPacketStat:vector ETV
attr source org_car2x_veins_modules_mac_sigDroppedPacket
116	41753	57.142882716423	1
116	41976	57.433995363643	1
116	44204	58.4339966239	1
116	45489	58.669385702856	1
116	215454	59.434417408108	1
116	267645	59.582135042966	1
116	275123	59.603288391974	1
116	286653	59.635640913042	1
116	298734	59.669656210054	1
116	340194	59.787862421704	1
116	434192	60.03781128856	1
116	590852	60.383797158394	1
116	647247	60.54224924333	1
116	661162	60.581462133402	1
116	669148	60.60370160515	1
116	680561	60.635627964274	1
116	692657	60.6695213208	1
116	876474	61.101016012347	1
116	886280	61.115222140665	1
116	895042	61.127524708907	1
116	918192	61.161560254839	1
116	1046324	61.473882697793	1
116	1086448	61.581532554037	1
116	1101836	61.622827080639	1
116	1119289	61.669761783989	1
116	1307609	62.101456959329	1
116	1477841	62.484440299679	1
116	1478699	62.486658060221	1
116	1513045	62.581647051459	1
116	1729519	63.101154455609	1
116	1800611	63.208661055451	1
116	1863762	63.384080924211	1
116	1900122	63.484139426677	1
116	1901201	63.486939015981	1
116	1921437	63.542620739849	1
116	1935504	63.581815851383	1
116	2053092	63.906635418519	1
116	2313740	64.437736178039	1
116	2332604	64.486665514181	1
116	2347090	64.524418623721	1
116	2368911	64.581470415843	1
116	2377125	64.603135780433	1
116	2384663	64.622873621501	1
116	2389551	64.635634996301	1
116	2493335	64.906919935213	1
116	2495050	64.911201037211	1
116	2551852	65.038120722117	1
116	2608070	65.120066720717	1
116	2731089	65.383654396747	1
116	2751352	65.437699531571	1
116	2764866	65.473904268731	1
116	2768663	65.483895099301	1
116	2790556	65.542288547159	1
116	2813278	65.603036949417	1
116	2820730	65.622831721097	1
116	2825498	65.635463166217	1
116	2926180	65.906845074153	1
116	3163270	66.384085458787	1
116	3200539	66.484261111135	1
116	3201404	66.486439214819	1
116	3236738	66.581636784863	1
116	3256680	66.635209634767	1
116	3415180	67.037769406935	1
116	3631339	67.473765132029	1
116	3636230	67.486456516923	1
116	3657516	67.542546287603	1
116	3672294	67.581578115379	1
116	3680526	67.603391078527	1
116	3687953	67.622798739415	1
116	3727911	67.728037523133	1
116	3796825	67.910950123523	1
116	3853058	68.038105960685	1
116	4030411	68.383625833633	1
116	4088723	68.542472349375	1
116	4110949	68.603060236173	1
116	4178835	68.788022284191	1
116	4222026	68.906769963377	1
116	4277310	69.037605100727	1
116	4446074	69.383986218859	1
116	4464494	69.437830821521	1
116	4481153	69.486380855411	1
116	4500233	69.542413660019	1
116	4520899	69.603079682041	1
116	4531997	69.635296405219	1
116	4843267	70.383867366293	1
116	4861375	70.437932834761	1
116	4896537	70.542757971413	1
116	5018123	70.906918611637	1
116	5271536	71.486797502593	1
116	5310522	71.602922729859	1
116	5321548	71.635391419829	1
116	5413902	71.911156248345	1
116	5631304	72.383755597723	1
116	5649413	72.437924794445	1
116	5711718	72.623221981201	1
116	5716019	72.635723653233	1
116	6095473	73.581397379289	1
116	6102893	73.603157485789	1
116	6113926	73.635174220639	1
116	6145632	73.728286363073	1
116	6446989	74.437706231567	1
116	6459343	74.473884974781	1
116	6503548	74.602933965045	1
116	6514684	74.635176759095	1
116	6607048	74.907039611233	1
116	6860023	75.474137011249	1
116	6864434	75.486493072631	1
116	6904408	75.602875783977	1
116	7009560	75.910889066781	1
116	7309121	76.602891392093	1
116	7320580	76.635308295685	1
116	7416367	76.910850790195	1
116	7652971	77.437937892877	1
116	7669358	77.486592240863	1
116	7708675	77.603686046901	1
116	7810215	77.906678249603	1
116	8041826	78.437809652831	1
116	8075571	78.542435774361	1
116	8192963	78.906850019371	1
116	8438146	79.473790791857	1
116	8442515	79.486555201525	1
116	8460946	79.542367260589	1
116	8814970	80.437918905635	1
116	8831045	80.486560512769	1
116	8869435	80.602942353855	1
116	8876119	80.622711360693	1
116	8880351	80.635355705153	1
116	9228835	81.542463763067	1
116	9286965	81.728043488909	1
116	9565609	82.437923904315	1
116	9622738	82.623353395187	1
116	9654859	82.728491584023	1
116	9709642	82.906823520087	1
122	46106	59	3.6336971294599
122	414638	60	4.5973138600042
122	809983	61	5.5881569004026
122	1242093	62	6.7122734222448
122	1664610	63	9.0861460661315
122	2086700	64	5.291176276372
122	2528808	65	2.1128832135052
122	2960670	66	1.923922059384
122	3392588	67	2.0543365234991
122	3830397	68	1.7444294842255
122	4256004	69	2.1918152388739
122	4655456	70	2.1221573752423
122	5049139	71	1.9359100705535
122	5443494	72	2.0468970513967
122	5837244	73	2.070822150522
122	6238068	74	1.8815413777025
122	6638518	75	2.0026799214206
122	7039525	76	1.9603788367458
122	7446904	77	2.0784163551185
122	7841198	78	2.3637934188281
122	8222846	79	1.9394474855453
122	8611746	80	1.8668985001732
122	8999639	81	1.9469494949028
122	9372102	82	2.1035766880283
121	46106	59	1.8590114020463
121	414638	60	1.8692974762409
121	809983	61	1.8792656755564
121	1242093	62	1.921800710666
121	1664610	63	2.27876291906
121	2086700	64	0.96625775152015
121	2528808	65	0.021986080107744
121	2960670	66	-0.033097851336933
121	3392588	67	0.0054814810538666
121	3830397	68	-0.08451131673297
121	4256004	69	0.047559759032447
121	4655456	70	0.025977965900674
121	5049139	71	-0.02857177047059
121	5443494	72	0.0043511677882631
121	5837244	73	0.011127649389673
121	6238068	74	-0.043989594876766
121	6638518	75	-0.0076085484726356
121	7039525	76	-0.019670929950662
121	7446904	77	0.01514982565539
121	7841198	78	0.09677048998652
121	8222846	79	-0.028308004424908
121	8611746	80	-0.04856865748763
121	8999639	81	-0.024003298263997
121	9372102	82	0.022090257119853
119	43681	58	3.2022692176314
119	46106	59	5.0612806196777
119	414638	60	6.9305780959186
119	809983	61	8.809843771475
119	1242093	62	10.731644482141
119	1664610	63	13.010407401201
119	2086700	64	13.976665152721
119	2528808	65	13.998651232829
119	2960670	66	13.965553381492
119	3392588	67	13.971034862546
119	3830397	68	13.886523545813
119	4256004	69	13.934083304845
119	4655456	70	13.960061270746
119	5049139	71	13.931489500275
119	5443494	72	13.935840668064
119	5837244	73	13.946968317453
119	6238068	74	13.902978722577
119	6638518	75	13.895370174104
119	7039525	76	13.875699244153
119	7446904	77	13.890849069809
119	7841198	78	13.987619559795
119	8222846	79	13.95931155537
119	8611746	80	13.910742897883
119	8999639	81	13.886739599619
119	9372102	82	13.908829856738
113	41471	57	2096.5428579878
113	43681	58	2098.8263788261
113	46106	59	2102.7143017519
113	414638	60	2107.9742971482
113	809983	61	2113.5998034216
113	1242093	62	2118.2726896349
113	1664610	63	2120.8874943638
113	2086700	64	2120.4219438694
113	2528808	65	2119.9508174583
113	2960670	66	2119.480217603
113	3392588	67	2119.0097941747
113	3830397	68	2118.539839183
113	4256004	69	2118.0694633108
113	4655456	70	2117.5992042916
113	5049139	71	2117.1288108565
113	5443494	72	2116.6582699995
113	5837244	73	2116.1876148926
113	6238068	74	2115.7175189815
113	6638518	75	2114.4487757524
113	7039525	76	2112.4948226968
113	7446904	77	2109.8713799668
113	7841198	78	2105.393690276
113	8222846	79	2100.9177860999
113	8611746	80	2095.4032039372
113	8999639	81	2088.3340156395
113	9372102	82	2081.2704481687
112	41471	57	2437.5485173609
112	43681	58	2437.1176643725
112	46106	59	2435.6934833403
112	414638	60	2432.5283755178
112	809983	61	2427.0406188398
112	1242093	62	2418.3621897527
112	1664610	63	2406.8472599952
112	2086700	64	2393.063731182
112	2528808	65	2379.1151164967
112	2960670	66	2365.1820915535
112	3392588	67	2351.2542900491
112	3830397	68	2337.3403575179
112	4256004	69	2323.4139640131
112	4655456	70	2309.491030172
112	5049139	71	2295.5641166774
112	5443494	72	2281.6328384575
112	5837244	73	2267.6981776705
112	6238068	74	2253.7800729502
112	6638518	75	2239.9269749556
112	7039525	76	2226.1480852781
112	7446904	77	2212.5253325063
112	7841198	78	2199.3227841193
112	8222846	79	2186.125500355
112	8611746	80	2173.4111242555
112	8999639	81	2161.4026684979
112	9372102	82	2149.4037608582
vector 170 SingleAttackerV2VScenario.node[28].veinsmobility speed ETV
vector 171 SingleAttackerV2VScenario.node[28].nic.mac1609_4 droppedPacketStat:vector ETV
attr source org_car2x_veins_modules_mac_sigDroppedPacket
vector 172 SingleAttackerV2VScenario.node[28].veinsmobility acceleration ETV
vector 173 SingleAttackerV2VScenario.node[28].veinsmobility co2emission ETV
vector 174 SingleAttackerV2VScenario.node[29].veinsmobility posx ETV
vector 175 SingleAttackerV2VScenario.node[29].veinsmobility posy ETV
vector 176 SingleAttackerV2VScenario.node[29].nic.mac1609_4 droppedPacketStat:vector ETV
attr source org_car2x_veins_modules_mac_sigDroppedPacket
vector 177 SingleAttackerV2VScenario.node[29].veinsmobility speed ETV
vector 178 SingleAttackerV2VScenario.node[29].veinsmobility acceleration ETV
vector 179 SingleAttackerV2VScenario.node[29].veinsmobility co2emission ETV
vector 180 SingleAttackerV2VScenario.node[30].veinsmobility posx ETV
vector 181 SingleAttackerV2VScenario.node[30].veinsmobility posy ETV
vector 182 SingleAttackerV2VScenario.node[30].nic.mac1609_4 droppedPacketStat:vector ETV
attr source org_car2x_veins_modules_mac_sigDroppedPacket
vector 183 SingleAttackerV2VScenario.node[30].veinsmobility speed ETV
vector 184 SingleAttackerV2VScenario.node[30].veinsmobility acceleration ETV
vector 185 SingleAttackerV2VScenario.node[30].veinsmobility co2emission ETV
vector 186 SingleAttackerV2VScenario.node[31].veinsmobility posx ETV
vector 187 SingleAttackerV2VScenario.node[31].veinsmobility posy ETV
vector 188 SingleAttackerV2VScenario.node[31].nic.mac1609_4 droppedPacketStat:vector ETV
attr source org_car2x_veins_modules_mac_sigDroppedPacket
vector 189 SingleAttackerV2VScenario.node[31].veinsmobility speed ETV
vector 190 SingleAttackerV2VScenario.node[31].veinsmobility acceleration ETV
vector 191 SingleAttackerV2VScenario.node[31].veinsmobility co2emission ETV
vector 192 SingleAttackerV2VScenario.node[32].veinsmobility posx ETV
vector 193 SingleAttackerV2VScenario.node[32].veinsmobility posy ETV
vector 194 SingleAttackerV2VScenario.node[32].nic.mac1609_4 droppedPacketStat:vector ETV
attr source org_car2x_veins_modules_mac_sigDroppedPacket
vector 195 SingleAttackerV2VScenario.node[32].veinsmobility speed ETV
vector 196 SingleAttackerV2VScenario.node[32].veinsmobility acceleration ETV
vector 197 SingleAttackerV2VScenario.node[32].veinsmobility co2emission ETV
vector 198 SingleAttackerV2VScenario.node[33].veinsmobility posx ETV
vector 199 SingleAttackerV2VScenario.node[33].veinsmobility posy ETV
vector 200 SingleAttackerV2VScenario.node[33].nic.mac1609_4 droppedPacketStat:vector ETV
attr source org_car2x_veins_modules_mac_sigDroppedPacket
vector 201 SingleAttackerV2VScenario.node[33].veinsmobility speed ETV
vector 202 SingleAttackerV2VScenario.node[33].veinsmobility acceleration ETV
vector 203 SingleAttackerV2VScenario.node[33].veinsmobility co2emission ETV
vector 204 SingleAttackerV2VScenario.node[34].veinsmobility posx ETV
vector 205 SingleAttackerV2VScenario.node[34].veinsmobility posy ETV
vector 206 SingleAttackerV2VScenario.node[34].nic.mac1609_4 droppedPacketStat:vector ETV
attr source org_car2x_veins_modules_mac_sigDroppedPacket
vector 207 SingleAttackerV2VScenario.node[34].veinsmobility speed ETV
vector 208 SingleAttackerV2VScenario.node[34].veinsmobility acceleration ETV
vector 209 SingleAttackerV2VScenario.node[34].veinsmobility co2emission ETV
vector 210 SingleAttackerV2VScenario.node[35].veinsmobility posx ETV
vector 211 SingleAttackerV2VScenario.node[35].veinsmobility posy ETV
vector 212 SingleAttackerV2VScenario.node[35].nic.mac1609_4 droppedPacketStat:vector ETV
attr source org_car2x_veins_modules_mac_sigDroppedPacket
vector 213 SingleAttackerV2VScenario.node[35].veinsmobility speed ETV
vector 214 SingleAttackerV2VScenario.node[35].veinsmobility acceleration ETV
vector 215 SingleAttackerV2VScenario.node[35].veinsmobility co2emission ETV
vector 216 SingleAttackerV2VScenario.node[36].veinsmobility posx ETV
vector 217 SingleAttackerV2VScenario.node[36].veinsmobility posy ETV
vector 218 SingleAttackerV2VScenario.node[36].nic.mac1609_4 droppedPacketStat:vector ETV
attr source org_car2x_veins_modules_mac_sigDroppedPacket
vector 219 SingleAttackerV2VScenario.node[36].veinsmobility speed ETV
vector 220 SingleAttackerV2VScenario.node[36].veinsmobility acceleration ETV
vector 221 SingleAttackerV2VScenario.node[36].veinsmobility co2emission ETV
vector 222 SingleAttackerV2VScenario.node[37].veinsmobility posx ETV
vector 223 SingleAttackerV2VScenario.node[37].veinsmobility posy ETV
vector 224 SingleAttackerV2VScenario.node[37].nic.mac1609_4 droppedPacketStat:vector ETV
attr source org_car2x_veins_modules_mac_sigDroppedPacket
vector 225 SingleAttackerV2VScenario.node[37].veinsmobility speed ETV
vector 226 SingleAttackerV2VScenario.node[37].veinsmobility acceleration ETV
vector 227 SingleAttackerV2VScenario.node[37].veinsmobility co2emission ETV
vector 228 SingleAttackerV2VScenario.node[38].veinsmobility posx ETV
vector 229 SingleAttackerV2VScenario.node[38].veinsmobility posy ETV
vector 230 SingleAttackerV2VScenario.node[38].veinsmobility speed ETV
vector 231 SingleAttackerV2VScenario.node[38].nic.mac1609_4 droppedPacketStat:vector ETV
attr source org_car2x_veins_modules_mac_sigDroppedPacket
vector 232 SingleAttackerV2VScenario.node[38].veinsmobility acceleration ETV
vector 233 SingleAttackerV2VScenario.node[38].veinsmobility co2emission ETV
vector 234 SingleAttackerV2VScenario.node[39].veinsmobility posx ETV
vector 235 SingleAttackerV2VScenario.node[39].veinsmobility posy ETV
vector 236 SingleAttackerV2VScenario.node[39].nic.mac1609_4 droppedPacketStat:vector ETV
attr source org_car2x_veins_modules_mac_sigDroppedPacket
vector 237 SingleAttackerV2VScenario.node[39].veinsmobility speed ETV
vector 238 SingleAttackerV2VScenario.node[39].veinsmobility acceleration ETV
vector 239 SingleAttackerV2VScenario.node[39].veinsmobility co2emission ETV
vector 240 SingleAttackerV2VScenario.node[40].veinsmobility posx ETV
vector 241 SingleAttackerV2VScenario.node[40].veinsmobility posy ETV
vector 242 SingleAttackerV2VScenario.node[40].nic.mac1609_4 droppedPacketStat:vector ETV
attr source org_car2x_veins_modules_mac_sigDroppedPacket
vector 243 SingleAttackerV2VScenario.node[40].veinsmobility speed ETV
vector 244 SingleAttackerV2VScenario.node[40].veinsmobility acceleration ETV
vector 245 SingleAttackerV2VScenario.node[40].veinsmobility co2emission ETV
vector 246 SingleAttackerV2VScenario.node[41].veinsmobility posx ETV
vector 247 SingleAttackerV2VScenario.node[41].veinsmobility posy ETV
vector 248 SingleAttackerV2VScenario.node[41].nic.mac1609_4 droppedPacketStat:vector ETV
attr source org_car2x_veins_modules_mac_sigDroppedPacket
vector 249 SingleAttackerV2VScenario.node[41].veinsmobility speed ETV
vector 250 SingleAttackerV2VScenario.node[41].veinsmobility acceleration ETV
vector 251 SingleAttackerV2VScenario.node[41].veinsmobility co2emission ETV
vector 252 SingleAttackerV2VScenario.node[42].veinsmobility posx ETV
vector 253 SingleAttackerV2VScenario.node[42].veinsmobility posy ETV
vector 254 SingleAttackerV2VScenario.node[42].nic.mac1609_4 droppedPacketStat:vector ETV
attr source org_car2x_veins_modules_mac_sigDroppedPacket
vector 255 SingleAttackerV2VScenario.node[42].veinsmobility speed ETV
vector 256 SingleAttackerV2VScenario.node[42].veinsmobility acceleration ETV
vector 257 SingleAttackerV2VScenario.node[42].veinsmobility co2emission ETV
vector 258 SingleAttackerV2VScenario.node[43].veinsmobility posx ETV
vector 259 SingleAttackerV2VScenario.node[43].veinsmobility posy ETV
vector 260 SingleAttackerV2VScenario.node[43].nic.mac1609_4 droppedPacketStat:vector ETV
attr source org_car2x_veins_modules_mac_sigDroppedPacket
vector 261 SingleAttackerV2VScenario.node[43].veinsmobility speed ETV
vector 262 SingleAttackerV2VScenario.node[43].veinsmobility acceleration ETV
vector 263 SingleAttackerV2VScenario.node[43].veinsmobility co2emission ETV
vector 264 SingleAttackerV2VScenario.node[44].veinsmobility posx ETV
vector 265 SingleAttackerV2VScenario.node[44].veinsmobility posy ETV
vector 266 SingleAttackerV2VScenario.node[44].nic.mac1609_4 droppedPacketStat:vector ETV
attr source org_car2x_veins_modules_mac_sigDroppedPacket
vector 267 SingleAttackerV2VScenario.node[44].veinsmobility speed ETV
vector 268 SingleAttackerV2VScenario.node[44].veinsmobility acceleration ETV
vector 269 SingleAttackerV2VScenario.node[44].veinsmobility co2emission ETV
vector 270 SingleAttackerV2VScenario.node[45].veinsmobility posx ETV
vector 271 SingleAttackerV2VScenario.node[45].veinsmobility posy ETV
vector 272 SingleAttackerV2VScenario.node[45].nic.mac1609_4 droppedPacketStat:vector ETV
attr source org_car2x_veins_modules_mac_sigDroppedPacket
vector 273 SingleAttackerV2VScenario.node[45].veinsmobility speed ETV
vector 274 SingleAttackerV2VScenario.node[45].veinsmobility acceleration ETV
vector 275 SingleAttackerV2VScenario.node[45].veinsmobility co2emission ETV
vector 276 SingleAttackerV2VScenario.node[46].veinsmobility posx ETV
vector 277 SingleAttackerV2VScenario.node[46].veinsmobility posy ETV
vector 278 SingleAttackerV2VScenario.node[46].nic.mac1609_4 droppedPacketStat:vector ETV
attr source org_car2x_veins_modules_mac_sigDroppedPacket
vector 279 SingleAttackerV2VScenario.node[46].veinsmobility speed ETV
vector 280 SingleAttackerV2VScenario.node[46].veinsmobility acceleration ETV
vector 281 SingleAttackerV2VScenario.node[46].veinsmobility co2emission ETV
vector 282 SingleAttackerV2VScenario.node[47].veinsmobility posx ETV
vector 283 SingleAttackerV2VScenario.node[47].veinsmobility posy ETV
vector 284 SingleAttackerV2VScenario.node[47].nic.mac1609_4 droppedPacketStat:vector ETV
attr source org_car2x_veins_modules_mac_sigDroppedPacket
vector 285 SingleAttackerV2VScenario.node[47].veinsmobility speed ETV
vector 286 SingleAttackerV2VScenario.node[47].veinsmobility acceleration ETV
vector 287 SingleAttackerV2VScenario.node[47].veinsmobility co2emission ETV
vector 288 SingleAttackerV2VScenario.node[48].veinsmobility posx ETV
vector 289 SingleAttackerV2VScenario.node[48].veinsmobility posy ETV
vector 290 SingleAttackerV2VScenario.node[48].nic.mac1609_4 droppedPacketStat:vector ETV
attr source org_car2x_veins_modules_mac_sigDroppedPacket
vector 291 SingleAttackerV2VScenario.node[48].veinsmobility speed ETV
vector 292 SingleAttackerV2VScenario.node[48].veinsmobility acceleration ETV
vector 293 SingleAttackerV2VScenario.node[48].veinsmobility co2emission ETV
vector 294 SingleAttackerV2VScenario.node[49].veinsmobility posx ETV
vector 295 SingleAttackerV2VScenario.node[49].veinsmobility posy ETV
vector 296 SingleAttackerV2VScenario.node[49].nic.mac1609_4 droppedPacketStat:vector ETV
attr source org_car2x_veins_modules_mac_sigDroppedPacket
vector 297 SingleAttackerV2VScenario.node[49].veinsmobility speed ETV
vector 298 SingleAttackerV2VScenario.node[49].veinsmobility acceleration ETV
vector 299 SingleAttackerV2VScenario.node[49].veinsmobility co2emission ETV
vector 300 SingleAttackerV2VScenario.node[50].veinsmobility posx ETV
vector 301 SingleAttackerV2VScenario.node[50].veinsmobility posy ETV
vector 302 SingleAttackerV2VScenario.node[50].nic.mac1609_4 droppedPacketStat:vector ETV
attr source org_car2x_veins_modules_mac_sigDroppedPacket
vector 303 SingleAttackerV2VScenario.node[50].veinsmobility speed ETV
vector 304 SingleAttackerV2VScenario.node[50].veinsmobility acceleration ETV
vector 305 SingleAttackerV2VScenario.node[50].veinsmobility co2emission ETV
vector 306 SingleAttackerV2VScenario.node[51].veinsmobility posx ETV
vector 307 SingleAttackerV2VScenario.node[51].veinsmobility posy ETV
vector 308 SingleAttackerV2VScenario.node[51].nic.mac1609_4 droppedPacketStat:vector ETV
attr source org_car2x_veins_modules_mac_sigDroppedPacket
vector 309 SingleAttackerV2VScenario.node[51].veinsmobility speed ETV
vector 310 SingleAttackerV2VScenario.node[51].veinsmobility acceleration ETV
vector 311 SingleAttackerV2VScenario.node[51].veinsmobility co2emission ETV
vector 312 SingleAttackerV2VScenario.node[52].veinsmobility posx ETV
vector 313 SingleAttackerV2VScenario.node[52].veinsmobility posy ETV
vector 314 SingleAttackerV2VScenario.node[52].nic.mac1609_4 droppedPacketStat:vector ETV
attr source org_car2x_veins_modules_mac_sigDroppedPacket
vector 315 SingleAttackerV2VScenario.node[52].veinsmobility speed ETV
vector 316 SingleAttackerV2VScenario.node[52].veinsmobility acceleration ETV
vector 317 SingleAttackerV2VScenario.node[52].veinsmobility co2emission ETV
vector 318 SingleAttackerV2VScenario.node[53].veinsmobility posx ETV
vector 319 SingleAttackerV2VScenario.node[53].veinsmobility posy ETV
vector 320 SingleAttackerV2VScenario.node[53].nic.mac1609_4 droppedPacketStat:vector ETV
attr source org_car2x_veins_modules_mac_sigDroppedPacket
vector 321 SingleAttackerV2VScenario.node[53].veinsmobility speed ETV
vector 322 SingleAttackerV2VScenario.node[53].veinsmobility acceleration ETV
vector 323 SingleAttackerV2VScenario.node[53].veinsmobility co2emission ETV
vector 324 SingleAttackerV2VScenario.node[54].veinsmobility posx ETV
vector 325 SingleAttackerV2VScenario.node[54].veinsmobility posy ETV
vector 326 SingleAttackerV2VScenario.node[54].nic.mac1609_4 droppedPacketStat:vector ETV
attr source org_car2x_veins_modules_mac_sigDroppedPacket
vector 327 SingleAttackerV2VScenario.node[54].veinsmobility speed ETV
vector 328 SingleAttackerV2VScenario.node[54].veinsmobility acceleration ETV
vector 329 SingleAttackerV2VScenario.node[54].veinsmobility co2emission ETV
vector 330 SingleAttackerV2VScenario.node[55].veinsmobility posx ETV
vector 331 SingleAttackerV2VScenario.node[55].veinsmobility posy ETV
vector 332 SingleAttackerV2VScenario.node[55].nic.mac1609_4 droppedPacketStat:vector ETV
attr source org_car2x_veins_modules_mac_sigDroppedPacket
vector 333 SingleAttackerV2VScenario.node[55].veinsmobility speed ETV
vector 334 SingleAttackerV2VScenario.node[55].veinsmobility acceleration ETV
vector 335 SingleAttackerV2VScenario.node[55].veinsmobility co2emission ETV
vector 336 SingleAttackerV2VScenario.node[56].veinsmobility posx ETV
vector 337 SingleAttackerV2VScenario.node[56].veinsmobility posy ETV
vector 338 SingleAttackerV2VScenario.node[56].nic.mac1609_4 droppedPacketStat:vector ETV
attr source org_car2x_veins_modules_mac_sigDroppedPacket
vector 339 SingleAttackerV2VScenario.node[56].veinsmobility speed ETV
vector 340 SingleAttackerV2VScenario.node[56].veinsmobility acceleration ETV
vector 341 SingleAttackerV2VScenario.node[56].veinsmobility co2emission ETV
vector 342 SingleAttackerV2VScenario.node[57].veinsmobility posx ETV
vector 343 SingleAttackerV2VScenario.node[57].veinsmobility posy ETV
vector 344 SingleAttackerV2VScenario.node[57].nic.mac1609_4 droppedPacketStat:vector ETV
attr source org_car2x_veins_modules_mac_sigDroppedPacket
vector 345 SingleAttackerV2VScenario.node[57].veinsmobility speed ETV
vector 346 SingleAttackerV2VScenario.node[57].veinsmobility acceleration ETV
vector 347 SingleAttackerV2VScenario.node[57].veinsmobility co2emission ETV
vector 348 SingleAttackerV2VScenario.node[58].veinsmobility posx ETV
vector 349 SingleAttackerV2VScenario.node[58].veinsmobility posy ETV
vector 350 SingleAttackerV2VScenario.node[58].nic.mac1609_4 droppedPacketStat:vector ETV
attr source org_car2x_veins_modules_mac_sigDroppedPacket
vector 351 SingleAttackerV2VScenario.node[58].veinsmobility speed ETV
vector 352 SingleAttackerV2VScenario.node[58].veinsmobility acceleration ETV
vector 353 SingleAttackerV2VScenario.node[58].veinsmobility co2emission ETV
vector 354 SingleAttackerV2VScenario.node[59].veinsmobility posx ETV
vector 355 SingleAttackerV2VScenario.node[59].veinsmobility posy ETV
vector 356 SingleAttackerV2VScenario.node[59].nic.mac1609_4 droppedPacketStat:vector ETV
attr source org_car2x_veins_modules_mac_sigDroppedPacket
vector 357 SingleAttackerV2VScenario.node[59].veinsmobility speed ETV
vector 358 SingleAttackerV2VScenario.node[59].veinsmobility acceleration ETV
vector 359 SingleAttackerV2VScenario.node[59].veinsmobility co2emission ETV
vector 360 SingleAttackerV2VScenario.node[60].veinsmobility posx ETV
vector 361 SingleAttackerV2VScenario.node[60].veinsmobility posy ETV
vector 362 SingleAttackerV2VScenario.node[60].nic.mac1609_4 droppedPacketStat:vector ETV
attr source org_car2x_veins_modules_mac_sigDroppedPacket
vector 363 SingleAttackerV2VScenario.node[60].veinsmobility speed ETV
vector 364 SingleAttackerV2VScenario.node[60].veinsmobility acceleration ETV
vector 365 SingleAttackerV2VScenario.node[60].veinsmobility co2emission ETV
vector 366 SingleAttackerV2VScenario.node[61].veinsmobility posx ETV
vector 367 SingleAttackerV2VScenario.node[61].veinsmobility posy ETV
vector 368 SingleAttackerV2VScenario.node[61].nic.mac1609_4 droppedPacketStat:vector ETV
attr source org_car2x_veins_modules_mac_sigDroppedPacket
vector 369 SingleAttackerV2VScenario.node[61].veinsmobility speed ETV
vector 370 SingleAttackerV2VScenario.node[61].veinsmobility acceleration ETV
vector 371 SingleAttackerV2VScenario.node[61].veinsmobility co2emission ETV
vector 372 SingleAttackerV2VScenario.node[62].veinsmobility posx ETV
vector 373 SingleAttackerV2VScenario.node[62].veinsmobility posy ETV
vector 374 SingleAttackerV2VScenario.node[62].nic.mac1609_4 droppedPacketStat:vector ETV
attr source org_car2x_veins_modules_mac_sigDroppedPacket
vector 375 SingleAttackerV2VScenario.node[62].veinsmobility speed ETV
vector 376 SingleAttackerV2VScenario.node[62].veinsmobility acceleration ETV
vector 377 SingleAttackerV2VScenario.node[62].veinsmobility co2emission ETV
vector 378 SingleAttackerV2VScenario.node[63].veinsmobility posx ETV
vector 379 SingleAttackerV2VScenario.node[63].veinsmobility posy ETV
vector 380 SingleAttackerV2VScenario.node[63].nic.mac1609_4 droppedPacketStat:vector ETV
attr source org_car2x_veins_modules_mac_sigDroppedPacket
vector 381 SingleAttackerV2VScenario.node[63].veinsmobility speed ETV
vector 382 SingleAttackerV2VScenario.node[63].veinsmobility acceleration ETV
vector 383 SingleAttackerV2VScenario.node[63].veinsmobility co2emission ETV
vector 384 SingleAttackerV2VScenario.node[64].veinsmobility posx ETV
vector 385 SingleAttackerV2VScenario.node[64].veinsmobility posy ETV
vector 386 SingleAttackerV2VScenario.node[64].nic.mac1609_4 droppedPacketStat:vector ETV
attr source org_car2x_veins_modules_mac_sigDroppedPacket
vector 387 SingleAttackerV2VScenario.node[64].veinsmobility speed ETV
vector 388 SingleAttackerV2VScenario.node[64].veinsmobility acceleration ETV
vector 389 SingleAttackerV2VScenario.node[64].veinsmobility co2emission ETV
vector 390 SingleAttackerV2VScenario.node[65].veinsmobility posx ETV
vector 391 SingleAttackerV2VScenario.node[65].veinsmobility posy ETV
vector 392 SingleAttackerV2VScenario.node[65].nic.mac1609_4 droppedPacketStat:vector ETV
attr source org_car2x_veins_modules_mac_sigDroppedPacket
vector 393 SingleAttackerV2VScenario.node[65].veinsmobility speed ETV
vector 394 SingleAttackerV2VScenario.node[65].veinsmobility acceleration ETV
vector 395 SingleAttackerV2VScenario.node[65].veinsmobility co2emission ETV
vector 396 SingleAttackerV2VScenario.node[66].veinsmobility posx ETV
vector 397 SingleAttackerV2VScenario.node[66].veinsmobility posy ETV
vector 398 SingleAttackerV2VScenario.node[66].nic.mac1609_4 droppedPacketStat:vector ETV
attr source org_car2x_veins_modules_mac_sigDroppedPacket
vector 399 SingleAttackerV2VScenario.node[66].veinsmobility speed ETV
vector 400 SingleAttackerV2VScenario.node[66].veinsmobility acceleration ETV
vector 401 SingleAttackerV2VScenario.node[66].veinsmobility co2emission ETV
vector 402 SingleAttackerV2VScenario.node[67].veinsmobility posx ETV
vector 403 SingleAttackerV2VScenario.node[67].veinsmobility posy ETV
vector 404 SingleAttackerV2VScenario.node[67].nic.mac1609_4 droppedPacketStat:vector ETV
attr source org_car2x_veins_modules_mac_sigDroppedPacket
vector 405 SingleAttackerV2VScenario.node[67].veinsmobility speed ETV
0	2	1	2414.8476884116
0	12	2	2411.8243290941
0	22	3	2407.1592244543
0	32	4	2402.288200066
0	63	5	2396.1394374635
0	94	6	2388.6993875942
0	125	7	2379.889221533
0	189	8	2370.1207192459
0	253	9	2360.3141803208
0	317	10	2350.5099475634
0	426	11	2341.0010868867
0	535	12	2334.5620136983
0	644	13	2337.6803779466
0	810	14	2348.3497968862
0	976	15	2358.6961674725
0	1142	16	2371.6616533546
0	1377	17	2385.4706804305
0	1612	18	2399.3588350668
0	1847	19	2412.4541998667
0	2163	20	2421.4418196582
0	2479	21	2428.417609864
0	2795	22	2431.468930052
0	3204	23	2433.1513403206
0	3613	24	2435.1237040944
0	4022	25	2437.2173147583
0	4536	26	2438.6437980286
0	5050	27	2439.5078674615
0	5564	28	2440.5186714794
0	6195	29	2441.528845595
0	6826	30	2442.539632472
0	7457	31	2443.5506939057
0	8217	32	2444.5606970395
0	8969	33	2445.5715007629
0	9713	34	2446.5823459494
0	10592	35	2447.5916815052
0	11459	36	2448.6026816299
0	12318	37	2449.6128429011
0	13316	38	2450.6236572781
0	14308	39	2449.5877572735
0	15296	40	2448.4767626838
0	16455	41	2447.3639479618
0	17614	42	2446.2500146491
0	18763	43	2445.1392084901
0	20077	44	2444.0273363738
0	21395	45	2442.9135561478
0	22693	46	2441.8003354116
0	24168	47	2440.688766335
0	25627	48	2439.7181849551
0	27080	49	2438.7751389151
0	28718	50	2437.9127695272
0	30346	51	2432.8981813103
0	31968	52	2422.5621833525
0	33795	53	2409.4768471345
0	35616	54	2395.5560608325
0	37434	55	2381.6304534525
0	39462	56	2367.704120385
0	41471	57	2353.7909654913
0	43681	58	2339.8911027684
0	46106	59	2325.9444014182
0	414638	60	2311.9984397547
0	809983	61	2298.0629560157
0	1242093	62	2284.1624367234
0	1664610	63	2270.2297144531
0	2086700	64	2256.3144344661
0	2528808	65	2242.4391436017
0	2960670	66	2228.6538894138
0	3392588	67	2214.9214383059
0	3830397	68	2201.7135808438
0	4256004	69	2188.5072655471
0	4655456	70	2175.5647843902
0	5049139	71	2163.5503735138
0	5443494	72	2152.2810637306
0	5837244	73	2144.5887051206
0	6238068	74	2138.2635977202
0	6638518	75	2131.5874349384
0	7039525	76	2123.6826602456
0	7446904	77	2114.4536504539
0	7841198	78	2104.9305043935
0	8222846	79	2095.3926695905
0	8611746	80	2085.8616714773
0	8999639	81	2076.3420117697
0	9372102	82	2066.8232231081
0	9738262	83	2057.2953852735
0	9742035	84	2047.7490207319
0	9745734	85	2037.7470630204
0	9749741	86	2027.7583770298
0	9753722	87	2017.7650833564
0	9757676	88	2007.7841867217
0	9762015	89	1997.7833553522
0	9766344	90	1987.7992408242
0	9770665	91	1977.819295212
0	9775296	92	1967.8280943267
0	9779886	93	1957.8246872866
0	9784393	94	1947.8325032329
0	9789234	95	1937.8316706659
0	9794064	96	1928.1007003819
0	9798888	97	1918.3690894475
0	9804059	98	1908.6329138415
0	9809178	99	1898.8980716255
0	9814275	100	1889.1623277469
0	9819706	101	1879.428695955
0	9825083	102	1869.6826437943
0	9830359	103	1859.9502110683
0	9835925	104	1850.2033725794
0	9841426	105	1840.4640899507
0	9846806	106	1830.4979997103
0	9852501	107	1820.4039463964
0	9858084	108	1810.2898087621
0	9863552	109	1800.3188843733
0	9869318	110	1790.3679471056
0	9874974	111	1780.4204781877
0	9880567	112	1770.4683888794
0	9886550	113	1760.5130686685
0	9892541	114	1750.5747224572
0	9898470	115	1740.6215736703
0	9904803	116	1730.6674320274
0	9911140	117	1720.7163174826
0	9917457	118	1710.7754760605
0	9924199	119	1700.8059774742
0	9930908	120	1690.8483497857
0	9937594	121	1680.9074256402
0	9944583	122	1670.9554368303
0	9951523	123	1660.9971094881
0	9958415	124	1651.0593747139
0	9965642	125	1641.1280734473
0	9972794	126	1631.1676356542
0	9979867	127	1621.2239541811
0	9987271	128	1611.4257260166
0	9994594	129	1601.6148653623
0	10001752	130	1591.7927645691
0	10009197	131	1581.9814693194
0	10016524	132	1572.1642532103
0	10023704	133	1562.34347582
0	10031171	134	1551.947947934
0	10038553	135	1541.3975833849
0	10045843	136	1530.845095026
0	10053467	137	1520.2915712632
0	10061037	138	1509.728632246
0	10068548	139	1498.7279541328
0	10076412	140	1487.3158830545
0	10084123	141	1475.9022730531
0	10091793	142	1464.5056606603
0	10099814	143	1453.0894078064
0	10107792	144	1440.926887084
0	10115744	145	1428.3186339787
0	10124061	146	1415.6889790031
0	10132326	147	1403.0399975294
0	10140552	148	1389.7668942681
0	10149082	149	1376.4571701371
0	10157601	150	1363.1765446934
0	10166020	151	1349.596608413
0	10174702	152	1335.8610687178
0	10183341	153	1322.2490942382
0	10191945	154	1308.5132167005
0	10200902	155	1294.7820073999
0	10209811	156	1281.0503223256
0	10218680	157	1267.2694575718
0	10227897	158	1253.4741900624
0	10237085	159	1239.6101810538
0	10246262	160	1225.7614449499
0	10255839	161	1211.8906246732
0	10265367	162	1198.0309158256
0	10274901	163	1184.1988259943
0	10284795	164	1170.3393754929
0	10294655	165	1156.4887161237
0	10304460	166	1142.6294862102
0	10314656	167	1128.7726701003
0	10324829	168	1114.9011299215
0	10335008	169	1100.990312329
0	10345541	170	1087.0859153785
0	10356059	171	1073.1738476856
0	10366560	172	1059.3093617744
0	10377442	173	1045.4341115308
0	10388310	174	1031.5425251569
0	10399137	175	1017.674499014
0	10410388	176	1003.8041570866
0	10421635	177	989.92382520938
0	10432875	178	976.05065828084
0	10444558	179	962.15986745327
0	10456221	180	948.27644068561
0	10467957	181	934.39882102655
0	10480063	182	920.52348120243
0	10492198	183	906.65667218377
0	10504268	184	892.78341476258
0	10516753	185	878.91308794147
0	10529176	186	865.02815199667
0	10541512	187	851.14778291469
0	10554306	188	837.26228737435
0	10567047	189	823.35133576056
0	10579764	190	809.48328152229
0	10592919	191	795.64045890875
0	10605993	192	781.83705097483
0	10619056	193	768.02676882793
0	10632438	194	753.55860899319
0	10645866	195	739.92502155679
0	10659225	196	726.34519234556
0	10672991	197	712.77528479067
0	10686789	198	699.19790227152
0	10700559	199	685.71666519728
0	10714731	200	672.27329510928
1	2	1	1578.4613427464
1	12	2	1579.5715045081
1	22	3	1581.5561876604
1	32	4	1586.4898643075
1	63	5	1592.7177137369
1	94	6	1600.2534592729
1	125	7	1609.1769437566
1	189	8	1619.0710908128
1	253	9	1629.0037637418
1	317	10	1638.9341008412
1	426	11	1649.1129276818
1	535	12	1661.0453354148
1	644	13	1673.5713017788
1	810	14	1682.4825292248
1	976	15	1691.8131453674
1	1142	16	1695.5671389326
1	1377	17	1697.3762977775
1	1612	18	1698.7149431584
1	1847	19	1699.9531973498
1	2163	20	1700.8030368192
1	2479	21	1701.4822415169
1	2795	22	1709.488976148
1	3204	23	1720.5600911779
1	3613	24	1733.5392477075
1	4022	25	1747.3162704222
1	4536	26	1761.1584832035
1	5050	27	1775.0761860982
1	5564	28	1788.9767346038
1	6195	29	1802.8686207114
1	6826	30	1816.7689334946
1	7457	31	1830.6730219759
1	8217	32	1844.5625567446
1	8969	33	1858.4631012026
1	9713	34	1872.3642158564
1	10592	35	1886.2445701128
1	11459	36	1900.1478154743
1	12318	37	1914.0395249445
1	13316	38	1927.940215908
1	14308	39	1941.8229822991
1	15296	40	1955.6896381965
1	16455	41	1969.5790117104
1	17614	42	1983.4823466875
1	18763	43	1997.3466507252
1	20077	44	2011.2242592955
1	21395	45	2025.1256835526
1	22693	46	2039.0201246524
1	24168	47	2052.8939508917
1	25627	48	2066.8011025051
1	27080	49	2080.7343486696
1	28718	50	2094.6123215063
1	30346	51	2107.3641791679
1	31968	52	2116.3952468438
1	33795	53	2120.927603568
1	35616	54	2120.5061244387
1	37434	55	2120.0357751185
1	39462	56	2119.5654012877
1	41471	57	2119.0954725612
1	43681	58	2118.6259927889
1	46106	59	2118.1549310023
1	414638	60	2117.6838941984
1	809983	61	2117.2132112961
1	1242093	62	2116.7437093481
1	1664610	63	2116.273119716
1	2086700	64	2115.8031192133
1	2528808	65	2114.8050206834
1	2960670	66	2112.8501650915
1	3392588	67	2110.6840274893
1	3830397	68	2106.2045372073
1	4256004	69	2101.725569956
1	4655456	70	2096.6710296534
1	5049139	71	2089.5983356712
1	5443494	72	2082.9642709382
1	5837244	73	2078.4359008828
1	6238068	74	2074.2998131048
1	6638518	75	2067.3649551338
1	7039525	76	2058.9265993144
1	7446904	77	2049.0746210488
1	7841198	78	2038.9086519862
1	8222846	79	2028.7270026747
1	8611746	80	2018.5526515376
1	8999639	81	2008.3904041611
1	9372102	82	1998.2290866263
1	9738262	83	1988.0581090907
1	9742035	84	1977.8979764003
1	9745734	85	1968.1750840908
1	9749741	86	1958.4650932075
1	9753722	87	1948.7506232001
1	9757676	88	1939.048204341
1	9762015	89	1929.3264069473
1	9766344	90	1919.6208599778
1	9770665	91	1909.9193656063
1	9775296	92	1900.2069299957
1	9779886	93	1890.4826287962
1	9784393	94	1880.7692374485
1	9789234	95	1871.0474388916
1	9794064	96	1861.0837063296
1	9798888	97	1851.1113331253
1	9804059	98	1841.1342823189
1	9809178	99	1831.1585978903
1	9814275	100	1821.1819894928
1	9819706	101	1811.2075454351
1	9825083	102	1801.2203737255
1	9830359	103	1791.2471583989
1	9835925	104	1781.2591809072
1	9841426	105	1771.2789462097
1	9846806	106	1761.5261628721
1	9852501	107	1751.939385362
1	9858084	108	1742.333532867
1	9863552	109	1732.5957958279
1	9869318	110	1722.843752672
1	9874974	111	1713.0951085426
1	9880567	112	1703.3419363732
1	9886550	113	1693.5855978774
1	9892541	114	1683.845894115
1	9898470	115	1674.0916836429
1	9904803	116	1664.3365001595
1	9911140	117	1654.5842832699
1	9917457	118	1644.8421341693
1	9924199	119	1635.071900689
1	9930908	120	1625.3133008368
1	9937594	121	1615.5710706664
1	9944583	122	1605.8179969862
1	9951523	123	1596.0587114645
1	9958415	124	1586.3196069179
1	9965642	125	1576.5868072892
1	9972794	126	1566.8254534993
1	9979867	127	1557.0805211132
1	9987271	128	1547.3077339306
1	9994594	129	1537.4041235438
1	10001752	130	1527.4891667552
1	10009197	131	1517.5851176642
1	10016524	132	1507.6750917388
1	10023704	133	1497.7614708655
1	10031171	134	1488.4943292914
1	10038553	135	1479.3682072135
1	10045843	136	1470.2402480291
1	10053467	137	1461.1113932142
1	10061037	138	1451.9743941538
1	10068548	139	1443.4095634408
1	10076412	140	1435.3672387134
1	10084123	141	1427.3238294758
1	10091793	142	1419.2923988067
1	10099814	143	1411.2471270952
1	10107792	144	1404.4715912091
1	10115744	145	1398.5273080459
1	10124061	146	1392.5729347635
1	10132326	147	1386.6094498159
1	10140552	148	1382.2199918823
1	10149082	149	1377.9258759925
1	10157601	150	1373.6411482114
1	10166020	151	1370.8586125933
1	10174702	152	1368.6454506526
1	10183341	153	1366.2564258669
1	10191945	154	1363.935224805
1	10200902	155	1361.4922660803
1	10209811	156	1359.1689612558
1	10218680	157	1357.0831467025
1	10227897	158	1355.3176006889
1	10237085	159	1353.855515372
1	10246262	160	1352.3950407207
1	10255839	161	1350.9322370933
1	10265367	162	1349.4706052672
1	10274901	163	1348.0118861161
1	10284795	164	1346.5502815349
1	10294655	165	1345.0896040583
1	10304460	166	1343.6280227397
1	10314656	167	1342.1666959785
1	10324829	168	1340.8004203383
1	10335008	169	1339.8465357032
1	10345541	170	1338.8862197632
1	10356059	171	1337.7562975651
1	10366560	172	1336.5670412043
1	10377442	173	1335.3768615099
1	10388310	174	1334.1852805475
1	10399137	175	1332.995720515
1	10410388	176	1331.8059618417
1	10421635	177	1330.6153462585
1	10432875	178	1329.4253452653
1	10444558	179	1328.2338325428
1	10456221	180	1327.0429514889
1	10467957	181	1325.8525685519
1	10480063	182	1324.6623811731
1	10492198	183	1323.4930497753
1	10504268	184	1322.3836538503
1	10516753	185	1321.274492274
1	10529176	186	1320.1641624589
1	10541512	187	1319.0443204213
1	10554306	188	1318.2106383052
1	10567047	189	1317.487991468
1	10579764	190	1316.2891806103
1	10592919	191	1314.6411743779
1	10605993	192	1312.7575593591
1	10619056	193	1310.8730062852
1	10632438	194	1312.228446682
1	10645866	195	1309.3165009236
1	10659225	196	1306.1390549354
1	10672991	197	1302.9639304429
1	10686789	198	1299.7870569387
1	10700559	199	1296.3138732184
1	10714731	200	1292.5546531742
2	12	2	4.1061966058897
2	22	3	6.0195495591482
2	32	4	7.7148368984793
2	63	5	9.5879868385225
2	94	6	11.391389363371
2	125	7	13.513839789145
2	189	8	13.99235115225
2	253	9	13.890224446259
2	317	10	13.976677174468
2	426	11	13.994826577434
2	535	12	13.923680325528
2	644	13	13.923542996629
2	810	14	13.91007151508
2	976	15	13.964598868005
2	1142	16	13.995233640105
2	1377	17	13.952304350403
2	1612	18	13.956911946491
2	1847	19	11.503494614513
2	2163	20	7.0034946145128
2	2479	21	7.8970062485022
2	2795	22	10.10483181514
2	3204	23	11.990706169653
2	3613	24	13.981089308816
2	4022	25	13.965594365916
2	4536	26	13.989059597438
2	5050	27	13.93892747174
2	5564	28	13.993701183654
2	6195	29	13.885759201739
2	6826	30	13.932752099037
2	7457	31	13.983992603337
2	8217	32	13.890129161163
2	8969	33	13.945758553667
2	9713	34	13.924564808162
2	10592	35	13.955253256506
2	11459	36	13.971511321289
2	12318	37	13.928658014578
2	13316	38	13.957683203742
2	14308	39	13.909685057036
2	15296	40	13.996253738229
2	16455	41	13.999815066161
2	17614	42	13.902084701743
2	18763	43	13.878634490466
2	20077	44	13.872462027394
2	21395	45	13.944837658829
2	22693	46	13.919867154986
2	24168	47	13.910194873156
2	25627	48	13.996150752292
2	27080	49	13.981207501933
2	28718	50	13.891851522969
2	30346	51	13.930097484484
2	31968	52	13.948393711536
2	33795	53	13.882971800906
2	35616	54	13.87138918183
2	37434	55	13.933780807857
2	39462	56	13.942265776542
2	41471	57	13.944625044707
2	43681	58	13.901211000958
2	46106	59	13.889535437319
2	414638	60	13.983680299402
2	809983	61	13.973125579024
2	1242093	62	13.904109570072
2	1664610	63	13.932968401979
2	2086700	64	13.954534002345
2	2528808	65	13.902721541785
2	2960670	66	13.925128551477
2	3392588	67	13.923595596936
2	3830397	68	13.990350087087
2	4256004	69	13.946136353342
2	4655456	70	13.880848547374
2	5049139	71	13.873358402713
2	5443494	72	11.392498963569
2	5837244	73	6.9022590334413
2	6238068	74	8.5164253701319
2	6638518	75	10.483873304979
2	7039525	76	12.557331098509
2	7446904	77	13.991704303646
2	7841198	78	13.937640864081
2	8222846	79	13.909840586104
2	8611746	80	13.9868867786
2	8999639	81	13.884608772129
2	9372102	82	13.932486002932
2	9738262	83	13.933768573357
2	9742035	84	13.905794141847
2	9745734	85	13.98817828268
2	9749741	86	13.967796034259
2	9753722	87	13.92936082036
2	9757676	88	13.889022653454
2	9762015	89	13.96838739505
2	9766344	90	13.872591278434
2	9770665	91	13.870003580733
2	9775296	92	13.957762695034
2	9779886	93	13.920815594839
2	9784393	94	13.951199041368
2	9789234	95	13.978555881397
2	9794064	96	13.936336233199
2	9798888	97	13.934993555129
2	9804059	98	13.924891995774
2	9809178	99	13.932084917249
2	9814275	100	13.986985983157
2	9819706	101	13.900793466019
2	9825083	102	13.996598818274
2	9830359	103	13.930725637402
2	9835925	104	13.975500264307
2	9841426	105	13.894506167276
2	9846806	106	13.914689087677
2	9852501	107	13.972062556965
2	9858084	108	13.917703868353
2	9863552	109	13.982933777843
2	9869318	110	13.965111266649
2	9874974	111	13.876817126267
2	9880567	112	13.966556464438
2	9886550	113	13.974978583108
2	9892541	114	13.938636550289
2	9898470	115	13.974425214932
2	9904803	116	13.926862362875
2	9911140	117	13.876724758793
2	9917457	118	13.889950936283
2	9924199	119	13.998293147539
2	9930908	120	13.984871024112
2	9937594	121	13.945821131815
2	9944583	122	13.988595255059
2	9951523	123	13.964110186596
2	9958415	124	13.910202819954
2	9965642	125	13.879832246762
2	9972794	126	13.950691929844
2	9979867	127	13.970130137289
2	9987271	128	13.929496678174
2	9994594	129	13.878089943773
2	10001752	130	13.993096217676
2	10009197	131	13.875779724845
2	10016524	132	13.913274697398
2	10023704	133	13.919895130382
2	10031171	134	13.88549514615
2	10038553	135	13.879287964974
2	10045843	136	13.94209516291
2	10053467	137	13.935209582935
2	10061037	138	13.96058773913
2	10068548	139	13.928988261374
2	10076412	140	13.982505610154
2	10084123	141	13.997650944768
2	10091793	142	13.908677199436
2	10099814	143	13.948675351946
2	10107792	144	13.946562061303
2	10115744	145	13.880639836157
2	10124061	146	13.945333202807
2	10132326	147	13.879452574104
2	10140552	148	13.994609436856
2	10149082	149	13.989116368371
2	10157601	150	13.909947179651
2	10166020	151	13.963378901547
2	10174702	152	13.90013743426
2	10183341	153	13.881279643248
2	10191945	154	13.966536763401
2	10200902	155	13.990584799319
2	10209811	156	13.944614902935
2	10218680	157	13.90994313936
2	10227897	158	13.974751957422
2	10237085	159	13.976185514266
2	10246262	160	13.998359918438
2	10255839	161	13.959418661566
2	10265367	162	13.990113809092
2	10274901	163	13.948902800528
2	10284795	164	13.900080059238
2	10294655	165	13.932041595592
2	10304460	166	13.92637393944
2	10314656	167	13.921132557108
2	10324829	168	13.944931330823
2	10335008	169	13.987475670008
2	10345541	170	13.880774960578
2	10356059	171	13.994187416655
2	10366560	172	13.979502878073
2	10377442	173	13.971636267495
2	10388310	174	13.95793872149
2	10399137	175	13.896624165105
2	10410388	176	13.997516584068
2	10421635	177	13.958810173364
2	10432875	178	13.994584853351
2	10444558	179	13.937199156948
2	10456221	180	13.975531172005
2	10467957	181	13.958391597297
2	10480063	182	13.943796972816
2	10492198	183	13.945384287355
2	10504268	184	13.936573621514
2	10516753	185	13.906400816785
2	10529176	186	13.949358371668
2	10541512	187	13.968923436471
2	10554306	188	13.945373411372
2	10567047	189	13.932034608289
2	10579764	190	13.960974337647
2	10592919	191	13.992788579096
2	10605993	192	13.874138010629
2	10619056	193	13.89025462592
2	10632438	194	13.89299565587
2	10645866	195	13.919382929872
2	10659225	196	13.91724806533
2	10672991	197	13.944629625464
2	10686789	198	13.942991133153
2	10700559	199	13.926412937951
2	10714731	200	13.928776678997
3	22	3	1.9133529532584
3	32	4	1.6952873393311
3	63	5	1.8731499400432
3	94	6	1.8034025248489
3	125	7	2.1224504257739
3	189	8	0.47851136310433
3	253	9	-0.1021267059911
3	317	10	0.086452728209551
3	426	11	0.018149402965792
3	535	12	-0.071146251906175
3	644	13	-0.0001373288989992
3	810	14	-0.013471481548622
3	976	15	0.054527352924923
3	1142	16	0.03063477210002
3	1377	17	-0.04292928970186
3	1612	18	0.0046075960877356
3	1847	19	-2.4534173319781
3	2163	20	-4.5
3	2479	21	0.8935116339894
3	2795	22	2.2078255666373
3	3204	23	1.8858743545134
3	3613	24	1.9903831391631
3	4022	25	-0.01549494290026
3	4536	26	0.023465231521987
3	5050	27	-0.050132125697564
3	5564	28	0.054773711913731
3	6195	29	-0.10794198191492
3	6826	30	0.046992897298187
3	7457	31	0.051240504300221
3	8217	32	-0.093863442174623
3	8969	33	0.055629392503761
3	9713	34	-0.021193745504135
3	10592	35	0.030688448343426
3	11459	36	0.016258064783178
3	12318	37	-0.042853306711185
3	13316	38	0.029025189164095
3	14308	39	-0.047998146705796
3	15296	40	0.086568681192585
3	16455	41	0.0035613279324025
3	17614	42	-0.097730364417657
3	18763	43	-0.023450211277231
3	20077	44	-0.0061724630719979
3	21395	45	0.072375631434841
3	22693	46	-0.024970503842923
3	24168	47	-0.0096722818305714
3	25627	48	0.085955879136455
3	27080	49	-0.014943250359503
3	28718	50	-0.089355978963431
3	30346	51	0.038245961514766
3	31968	52	0.018296227052343
3	33795	53	-0.065421910630539
3	35616	54	-0.011582619075197
3	37434	55	0.062391626026946
3	39462	56	0.0084849686850799
3	41471	57	0.002359268164728
3	43681	58	-0.043414043749216
3	46106	59	-0.011675563638565
3	414638	60	0.094144862082322
3	809983	61	-0.01055472037755
3	1242093	62	-0.069016008952167
3	1664610	63	0.028858831906691
3	2086700	64	0.021565600365866
3	2528808	65	-0.051812460559885
3	2960670	66	0.022407009692397
3	3392588	67	-0.0015329545410356
3	3830397	68	0.066754490151069
3	4256004	69	-0.044213733745272
3	4655456	70	-0.065287805967966
3	5049139	71	-0.0074901446606965
3	5443494	72	-2.480859439144
3	5837244	73	-4.4902399301279
3	6238068	74	1.6141663366905
3	6638518	75	1.9674479348469
3	7039525	76	2.0734577935305
3	7446904	77	1.4343732051363
3	7841198	78	-0.054063439564779
3	8222846	79	-0.027800277976786
3	8611746	80	0.077046192495619
3	8999639	81	-0.1022780064703
3	9372102	82	0.04787723080255
3	9738262	83	0.0012825704249551
3	9742035	84	-0.027974431510083
3	9745734	85	0.082384140833748
3	9749741	86	-0.020382248421667
3	9753722	87	-0.038435213898774
3	9757676	88	-0.040338166905567
3	9762015	89	0.079364741595928
3	9766344	90	-0.095796116616111
3	9770665	91	-0.0025876977015287
3	9775296	92	0.087759114301297
3	9779886	93	-0.036947100195102
3	9784393	94	0.030383446528576
3	9789234	95	0.027356840029825
3	9794064	96	-0.042219648198225
3	9798888	97	-0.0013426780700687
3	9804059	98	-0.010101559355389
3	9809178	99	0.0071929214755073
3	9814275	100	0.054901065907906
3	9819706	101	-0.086192517138551
3	9825083	102	0.095805352255702
3	9830359	103	-0.065873180872295
3	9835925	104	0.044774626905564
3	9841426	105	-0.080994097031654
3	9846806	106	0.020182920400986
3	9852501	107	0.057373469287995
3	9858084	108	-0.054358688611538
3	9863552	109	0.065229909489863
3	9869318	110	-0.017822511193808
3	9874974	111	-0.088294140382205
3	9880567	112	0.089739338171203
3	9886550	113	0.0084221186698414
3	9892541	114	-0.036342032819521
3	9898470	115	0.035788664643187
3	9904803	116	-0.047562852057162
3	9911140	117	-0.050137604081538
3	9917457	118	0.01322617748985
3	9924199	119	0.1083422112558
3	9930908	120	-0.013422123426572
3	9937594	121	-0.039049892297479
3	9944583	122	0.042774123244453
3	9951523	123	-0.024485068463255
3	9958415	124	-0.053907366641797
3	9965642	125	-0.030370573191904
3	9972794	126	0.070859683081508
3	9979867	127	0.0194382074452
3	9987271	128	-0.040633459114469
3	9994594	129	-0.051406734401827
3	10001752	130	0.11500627390342
3	10009197	131	-0.11731649283087
3	10016524	132	0.037494972553104
3	10023704	133	0.0066204329836186
3	10031171	134	-0.034399984232149
3	10038553	135	-0.0062071811757054
3	10045843	136	0.062807197936344
3	10053467	137	-0.006885579975787
3	10061037	138	0.025378156194929
3	10068548	139	-0.031599477755371
3	10076412	140	0.053517348780296
3	10084123	141	0.015145334613043
3	10091793	142	-0.088973745331169
3	10099814	143	0.039998152509797
3	10107792	144	-0.0021132906433188
3	10115744	145	-0.065922225145624
3	10124061	146	0.064693366650026
3	10132326	147	-0.065880628703161
3	10140552	148	0.11515686275204
3	10149082	149	-0.0054930684855208
3	10157601	150	-0.079169188719241
3	10166020	151	0.053431721895468
3	10174702	152	-0.063241467287298
3	10183341	153	-0.018857791011689
3	10191945	154	0.085257120153402
3	10200902	155	0.024048035917803
3	10209811	156	-0.045969896384049
3	10218680	157	-0.034671763575171
3	10227897	158	0.064808818062302
3	10237085	159	0.0014335568435495
3	10246262	160	0.022174404172693
3	10255839	161	-0.038941256871913
3	10265367	162	0.030695147525986
3	10274901	163	-0.04121100856457
3	10284795	164	-0.048822741289623
3	10294655	165	0.03196153635392
3	10304460	166	-0.0056676561525091
3	10314656	167	-0.0052413823315884
3	10324829	168	0.023798773714807
3	10335008	169	0.042544339185115
3	10345541	170	-0.10670070942957
3	10356059	171	0.11341245607706
3	10366560	172	-0.014684538582804
3	10377442	173	-0.0078666105773308
3	10388310	174	-0.013697546005714
3	10399137	175	-0.06131455638446
3	10410388	176	0.1008924189629
3	10421635	177	-0.038706410704181
3	10432875	178	0.035774679987226
3	10444558	179	-0.057385696403216
3	10456221	180	0.038332015057094
3	10467957	181	-0.017139574708416
3	10480063	182	-0.014594624480234
3	10492198	183	0.0015873145381917
3	10504268	184	-0.0088106658402829
3	10516753	185	-0.03017280472908
3	10529176	186	0.042957554883323
3	10541512	187	0.0195650648023
3	10554306	188	-0.023550025098958
3	10567047	189	-0.013338803083171
3	10579764	190	0.028939729358536
3	10592919	191	0.031814241448883
3	10605993	192	-0.11865056846757
3	10619056	193	0.016116615291686
3	10632438	194	0.0027410299493926
3	10645866	195	0.026387274002191
3	10659225	196	-0.0021348645421675
3	10672991	197	0.027381560134234
3	10686789	198	-0.0016384923108852
3	10700559	199	-0.016578195202165
3	10714731	200	0.0023637410462847
4	22	3	4.1962556146115
4	32	4	4.6765885426193
4	63	5	5.9822455727343
4	94	6	6.7469998477461
4	125	7	8.9023657158011
4	189	8	3.651678681686
4	253	9	1.6857621818206
4	317	10	2.3276633668785
4	426	11	2.0995306276608
4	535	12	1.7923040941768
4	644	13	2.0305681317735
4	810	14	1.9844951865828
4	976	15	2.2187318873595
4	1142	16	2.1416854339172
4	1377	17	1.8896148890835
4	1612	18	2.0499339673421
4	1847	19	0.973
4	2163	20	0.973
4	2479	21	3.236958348016
4	2795	22	7.0694109561587
4	3204	23	7.2974163894139
4	3613	24	8.7433911631671
4	4022	25	1.9831721788576
4	4536	26	2.116835898497
4	5050	27	1.8641906496581
4	5564	28	2.2229251583987
4	6195	29	1.6659573636763
4	6826	30	2.1897607355242
4	7457	31	2.2098947282049
4	8217	32	1.7134162858001
4	8969	33	2.220262482963
4	9713	34	1.9600107466791
4	10592	35	2.1374781171468
4	11459	36	2.0906721157861
4	12318	37	1.8877003515894
4	13316	38	2.1321496077276
4	14308	39	1.8687156117374
4	15296	40	2.3304680610145
4	16455	41	2.0508444419824
4	17614	42	1.7014066358448
4	18763	43	1.9480224167653
4	20077	44	2.0051942568707
4	21395	45	2.2764352646729
4	22693	46	1.9468859370227
4	24168	47	1.9972436254254
4	25627	48	2.3283883276758
4	27080	49	1.986570831776
4	28718	50	1.7286432154925
4	30346	51	2.1600950203348
4	31968	52	2.0950692067684
4	33795	53	1.8080099866508
4	35616	54	1.9870007069688
4	37434	55	2.2415869227426
4	39462	56	2.0614496349521
4	41471	57	2.0411090259012
4	43681	58	1.8833083678017
4	46106	59	1.9884832302515
4	414638	60	2.354449439478
4	809983	61	2.0005509728446
4	1242093	62	1.7977837530394
4	1664610	63	2.1288938687775
4	2086700	64	2.1067187558746
4	2528808	65	1.8553069725578
4	2960670	66	2.1063875713732
4	3392588	67	2.0258903509268
4	3830397	68	2.262932728219
4	4256004	69	1.8847315060405
4	4655456	70	1.8082762607161
4	5049139	71	2.000878333413
4	5443494	72	0.973
4	5837244	73	0.973
4	6238068	74	4.8909035037574
4	6638518	75	6.6931706123012
4	7039525	76	8.1736272853226
4	7446904	77	6.8747046222767
4	7841198	78	1.8508696851047
4	8222846	79	1.9364383963061
4	8611746	80	2.2972138031298
4	8999639	81	1.684823067126
4	9372102	82	2.1926999225795
4	9738262	83	2.0363789456198
4	9742035	84	1.9354697534215
4	9745734	85	2.3153651438392
4	9749741	86	1.9669373516203
4	9753722	87	1.902596217338
4	9757676	88	1.8924914948632
4	9762015	89	2.302781357902
4	9766344	90	1.7055689253675
4	9770665	91	2.0169309146366
4	9775296	92	2.3297286898665
4	9779886	93	1.9067964342377
4	9784393	94	2.1360083172061
4	9789234	95	2.1288107445349
4	9794064	96	1.8905327517991
4	9798888	97	2.0276878747833
4	9804059	98	1.9972666969559
4	9809178	99	2.0560514122556
4	9814275	100	2.2225776078021
4	9819706	101	1.7399584457899
4	9825083	102	2.3616675988662
4	9830359	103	1.8106051897429
4	9835925	104	2.1871425334377
4	9841426	105	1.7568565103294
4	9846806	106	2.0978086579759
4	9852501	107	2.2291772370488
4	9858084	108	1.8481055820428
4	9863552	109	2.2569159120006
4	9869318	110	1.9752909217392
4	9874974	111	1.7309896274047
4	9880567	112	2.3374792921863
4	9886550	113	2.0646493500052
4	9892541	114	1.9104883031949
4	9898470	115	2.156757634357
4	9904803	116	1.8717287458362
4	9911140	117	1.858588755953
4	9917457	118	2.0718823550562
4	9924199	119	2.4041746593667
4	9930908	120	1.9920596188634
4	9937594	121	1.9020580442488
4	9944583	122	2.1818808197796
4	9951523	123	1.9527709858126
4	9958415	124	1.8489525370382
4	9965642	125	1.9249884860074
4	9972794	126	2.2720386209811
4	9979867	127	2.1012322725512
4	9987271	128	1.8952292897908
4	9994594	129	1.8544662206567
4	10001752	130	2.4259796074968
4	10009197	131	1.633853726441
4	10016524	132	2.1557066895618
4	10023704	133	2.0528665696243
4	10031171	134	1.912038644498
4	10038553	135	2.0057614883071
4	10045843	136	2.2439569957465
4	10053467	137	2.0090946504482
4	10061037	138	2.120196442655
4	10068548	139	1.9255084514804
4	10076412	140	2.2173965281066
4	10084123	141	2.0896985367588
4	10091793	142	1.7312747672946
4	10099814	143	2.1680530812233
4	10107792	144	2.0262751557531
4	10115744	145	1.8061360510748
4	10124061	146	2.2506757699835
4	10132326	147	1.8061733875953
4	10140552	148	2.4266845615448
4	10149082	149	2.0192126891949
4	10157601	150	1.7642446806966
4	10166020	151	2.2149040884642
4	10174702	152	1.8167897782961
4	10183341	153	1.9636397273566
4	10191945	154	2.3223899945849
4	10200902	155	2.1189658857422
4	10209811	156	1.8786904715973
4	10218680	157	1.9134128997495
4	10227897	158	2.2545313149111
4	10237085	159	2.041236054439
4	10246262	160	2.1134871274209
4	10255839	161	1.9036851063429
4	10265367	162	2.1413264045017
4	10274901	163	1.8950788450201
4	10284795	164	1.8650863811811
4	10294655	165	2.1392105637573
4	10304460	166	2.0122955373724
4	10314656	167	2.013198385157
4	10324829	168	2.1131928376646
4	10335008	169	2.1809799612437
4	10345541	170	1.6697327297416
4	10356059	171	2.4207464012641
4	10366560	172	1.9872740217513
4	10377442	173	2.009453645548
4	10388310	174	1.9884640791529
4	10399137	175	1.8229391595762
4	10410388	176	2.3789436116768
4	10421635	177	1.9044186435818
4	10432875	178	2.1589494721561
4	10444558	179	1.8396713411021
4	10456221	180	2.1654466505666
4	10467957	181	1.976929994284
4	10480063	182	1.9840511922951
4	10492198	183	2.0385925904375
4	10504268	184	2.0027657907371
4	10516753	185	1.9281597209283
4	10529176	186	2.1780783503654
4	10541512	187	2.1015302135304
4	10554306	188	1.9541090247884
4	10567047	189	1.9871084558726
4	10579764	190	2.132221589328
4	10592919	191	2.1453942129283
4	10605993	192	1.6292726516763
4	10619056	193	2.0815901001522
4	10632438	194	2.0370952723661
4	10645866	195	2.1191228175185
4	10659225	196	2.0232267690783
4	10672991	197	2.1252008054669
4	10686789	198	2.0275077178617
4	10700559	199	1.9756807955319
4	10714731	200	2.0394974073041
5	32	4	2414.8767583254
5	63	5	2411.8725636174
5	94	6	2407.2970525089
5	125	7	2402.4626210862
5	189	8	2396.3056860371
5	253	9	2388.8743536096
5	317	10	2380.097228827
5	426	11	2370.3507264333
5	535	12	2360.5878487076
5	644	13	2350.7849318213
5	810	14	2341.2418729237
5	976	15	2334.6305580324
5	1142	16	2337.3467480277
5	1377	17	2348.0519014368
5	1612	18	2358.3998493504
5	1847	19	2371.2788021446
5	2163	20	2385.0887639745
5	2479	21	2398.4985461925
5	2795	22	2411.2485283293
5	3204	23	2420.6905829484
5	3613	24	2427.6440450998
5	4022	25	2431.3031180431
5	4536	26	2432.9057471878
5	5050	27	2434.8184996871
5	5564	28	2436.9106889558
5	6195	29	2438.5031214217
5	6826	30	2439.3593195516
5	7457	31	2440.369415351
5	8217	32	2441.3809858783
5	8969	33	2442.3915292114
5	9713	34	2443.4025774666
5	10592	35	2444.4125131728
5	11459	36	2445.4237660761
5	12318	37	2446.4351718556
5	13316	38	2447.445188909
5	14308	39	2448.4548419161
5	15296	40	2449.4654486813
5	16455	41	2450.476915126
5	17614	42	2449.7481920538
5	18763	43	2448.6354602334
5	20077	44	2447.5233605381
5	21395	45	2446.4110956573
5	22693	46	2445.2987705469
5	24168	47	2444.1858201949
5	25627	48	2443.0726558273
5	27080	49	2441.958402227
5	28718	50	2440.8471951957
5	30346	51	2439.853141924
5	31968	52	2438.9126676621
5	33795	53	2438.2384050791
5	35616	54	2433.9338541407
5	37434	55	2424.2633578021
5	39462	56	2411.4006211698
5	41471	57	2397.5263366561
5	43681	58	2383.5991991319
5	46106	59	2369.6415879668
5	414638	60	2355.7230126082
5	809983	61	2341.7800897348
5	1242093	62	2327.8493799239
5	1664610	63	2313.9061680939
5	2086700	64	2299.9611219736
5	2528808	65	2286.0198329303
5	2960670	66	2272.0780199043
5	3392588	67	2258.1553202658
5	3830397	68	2244.2930331923
5	4256004	69	2230.5030017378
5	4655456	70	2216.7095082502
5	5049139	71	2203.4749762727
5	5443494	72	2190.278848393
5	5837244	73	2177.1900107111
5	6238068	74	2165.2177132766
5	6638518	75	2153.7445848223
5	7039525	76	2145.4846776827
5	7446904	77	2139.4701723304
5	7841198	78	2133.0745223515
5	8222846	79	2125.6439100591
5	8611746	80	2116.7883024759
5	8999639	81	2107.2562247183
5	9372102	82	2097.7191442545
5	9738262	83	2088.20966158
5	9742035	84	2078.6770228322
5	9745734	85	2069.1472766056
5	9749741	86	2059.6265143615
5	9753722	87	2050.0881247354
5	9757676	88	2040.2129181731
5	9762015	89	2030.2142328317
5	9766344	90	2020.2315101647
5	9770665	91	2010.256468387
5	9775296	92	2000.2638172616
5	9779886	93	1990.2666327308
5	9784393	94	1980.2815316444
5	9789234	95	1970.3112187028
5	9794064	96	1960.3202991502
5	9798888	97	1950.320968344
5	9804059	98	1940.3192097204
5	9809178	99	1930.5307529944
5	9814275	100	1920.7876407084
5	9819706	101	1911.0613316834
5	9825083	102	1901.3249088428
5	9830359	103	1891.5834005693
5	9835925	104	1881.8454433145
5	9841426	105	1872.1094052895
5	9846806	106	1862.3778775644
5	9852501	107	1852.6495537497
5	9858084	108	1842.914382792
5	9863552	109	1833.0494208748
5	9869318	110	1822.9347896504
5	9874974	111	1812.8369890193
5	9880567	112	1802.8175347329
5	9886550	113	1792.8624114869
5	9892541	114	1782.9135613587
5	9898470	115	1772.9687925866
5	9904803	116	1763.0249732505
5	9911140	117	1753.0679511075
5	9917457	118	1743.1052337479
5	9924199	119	1733.1503867215
5	9930908	120	1723.1900776097
5	9937594	121	1713.244052526
5	9944583	122	1703.2937132234
5	9951523	123	1693.3309477486
5	9958415	124	1683.3763150782
5	9965642	125	1673.4193282695
5	9972794	126	1663.4584805429
5	9979867	127	1653.5024637608
5	9987271	128	1643.5547524911
5	9994594	129	1633.6066752226
5	10001752	130	1623.6645085004
5	10009197	131	1613.8417501702
5	10016524	132	1604.013780547
5	10023704	133	1594.1931063466
5	10031171	134	1584.3708113986
5	10038553	135	1574.550211575
5	10045843	136	1564.7259546154
5	10053467	137	1554.4980170038
5	10061037	138	1543.9416068937
5	10068548	139	1533.3821385803
5	10076412	140	1522.8272154502
5	10084123	141	1512.279819045
5	10091793	142	1501.474178453
5	10099814	143	1490.0830614709
5	10107792	144	1478.6762076383
5	10115744	145	1467.2672213796
5	10124061	146	1455.8741565987
5	10132326	147	1444.0299497389
5	10140552	148	1431.4079337142
5	10149082	149	1418.7861211564
5	10157601	150	1406.1448857147
5	10166020	151	1393.056090745
5	10174702	152	1379.7874898077
5	10183341	153	1366.4917195771
5	10191945	154	1353.0565842974
5	10200902	155	1339.2819934005
5	10209811	156	1325.6475681624
5	10218680	157	1311.9319322495
5	10227897	158	1298.2020584799
5	10237085	159	1284.4946292655
5	10246262	160	1270.7033416578
5	10255839	161	1256.9277303631
5	10265367	162	1243.0648728247
5	10274901	163	1229.2161692132
5	10284795	164	1215.3589482324
5	10294655	165	1201.5012091175
5	10304460	166	1187.647958964
5	10314656	167	1173.7783648371
5	10324829	168	1159.9287496841
5	10335008	169	1146.0754987767
5	10345541	170	1132.2027535279
5	10356059	171	1118.3129060761
5	10366560	172	1104.4156030496
5	10377442	173	1090.5079449343
5	10388310	174	1076.6051512775
5	10399137	175	1062.7097108202
5	10410388	176	1048.8438922535
5	10421635	177	1034.9717426429
5	10432875	178	1021.0900947169
5	10444558	179	1007.205821594
5	10456221	180	993.32502322039
5	10467957	181	979.45694473572
5	10480063	182	965.58298048959
5	10492198	183	951.69956320198
5	10504268	184	937.83349687897
5	10516753	185	923.96415680146
5	10529176	186	910.09363024239
5	10541512	187	896.22222074913
5	10554306	188	882.34142431384
5	10567047	189	868.45095773751
5	10579764	190	854.58310482127
5	10592919	191	840.681465753
5	10605993	192	826.76858000725
5	10619056	193	812.88615393057
5	10632438	194	799.01895826147
5	10645866	195	785.21935172612
5	10659225	196	771.41701312107
5	10672991	197	756.92857042269
5	10686789	198	743.240513489
5	10700559	199	729.68802193191
5	10714731	200	716.10338605836
6	32	4	1578.4506684253
6	63	5	1579.5537930429
6	94	6	1581.4165868293
6	125	7	1586.3131998433
6	189	8	1592.5493268352
6	253	9	1600.0762428036
6	317	10	1608.9662610246
6	426	11	1618.8381252186
6	535	12	1628.7265753681
6	644	13	1638.6555796713
6	810	14	1648.8046840783
6	976	15	1660.6325348346
6	1142	16	1673.301875555
6	1377	17	1682.2138796467
6	1612	18	1691.5459182626
[...]
358	10516753	185	0.034157297415661
358	10529176	186	-0.029592302818784
358	10541512	187	0.080857183530462
358	10554306	188	-0.042447779322975
358	10567047	189	-0.22231961328698
358	10579764	190	-0.70858087862466
358	10592919	191	-0.75542093545975
358	10605993	192	-1.1502280847885
358	10619056	193	-0.64187401034368
358	10632438	194	-0.2407572781072
358	10645866	195	-1.4815628318974
358	10659225	196	1.2203687041503
358	10672991	197	-1.4553461790457
358	10686789	198	2.1313343618065
358	10700559	199	1.9769825151493
358	10714731	200	1.9224305340135
359	10421635	177	4.4859459502733
359	10432875	178	5.5355697182162
359	10444558	179	6.2904974394278
359	10456221	180	7.7364075876943
359	10467957	181	3.7032788800889
359	10480063	182	1.7806728603615
359	10492198	183	1.8021589005579
359	10504268	184	1.979615485277
359	10516753	185	2.0103761022652
359	10529176	186	1.8136537750939
359	10541512	187	2.1583878011798
359	10554306	188	1.7777420646492
359	10567047	189	1.2209228188579
359	10579764	190	0.973
359	10592919	191	0.973
359	10605993	192	0.973
359	10619056	193	0.973
359	10632438	194	0.973
359	10645866	195	0.973
359	10659225	196	4.1378509119456
359	10672991	197	0.973
359	10686789	198	6.436008977033
359	10700559	199	7.1843892363277
359	10714731	200	8.0994977241799
360	10432875	178	2414.8336314816
360	10444558	179	2411.7752411835
360	10456221	180	2407.03417426
360	10467957	181	2401.9258836866
360	10480063	182	2395.3975762917
360	10492198	183	2387.7257951001
360	10504268	184	2379.8500689116
360	10516753	185	2371.97820132
360	10529176	186	2364.1098582272
360	10541512	187	2356.2306014816
360	10554306	188	2348.3629770757
360	10567047	189	2340.7913800224
360	10579764	190	2334.9577262931
360	10592919	191	2334.4179237145
360	10605993	192	2342.3961398053
360	10619056	193	2350.8584407037
360	10632438	194	2359.1886544036
360	10645866	195	2369.6657009403
360	10659225	196	2380.7741972801
360	10672991	197	2391.9604889847
360	10686789	198	2403.120836771
360	10700559	199	2414.2369122199
360	10714731	200	2422.4703821694
361	10432875	178	1578.4665043773
361	10444558	179	1579.5895293327
361	10456221	180	1581.6828462798
361	10467957	181	1586.8568408843
361	10480063	182	1593.469116901
361	10492198	183	1601.239574342
361	10504268	184	1609.2165999683
361	10516753	185	1617.1897173682
361	10529176	186	1625.1592649361
361	10541512	187	1633.13986653
361	10554306	188	1641.1086861668
361	10567047	189	1649.3813851075
361	10579764	190	1658.6622006092
361	10592919	191	1669.711403802
361	10605993	192	1677.3795630736
361	10619056	193	1684.744887054
361	10632438	194	1692.2572824173
361	10645866	195	1695.2688070834
361	10659225	196	1696.8173114732
361	10672991	197	1698.0153801311
361	10686789	198	1699.070665542
361	10700559	199	1700.1217647074
361	10714731	200	1700.8885521973
362	10436450	178.407023110878	1
362	10444341	178.976910111083	1
362	10448118	179.407012222338	1
362	10454222	179.863170946212	1
362	10459249	180.321349350084	1
362	10459841	180.407014690636	1
362	10462302	180.579349075978	1
362	10465726	180.82950329546	1
362	10474317	181.57935014422	1
362	10480234	182.012007683392	1
362	10486430	182.57934912938	1
362	10537419	186.690629441595	1
362	10547369	187.522505627322	1
362	10561725	188.60577770879	1
362	10604018	191.877733730152	1
362	10645776	194.996669241722	1
362	10648781	195.184183813852	1
362	10657032	195.877733222302	1
362	10660491	196.057805844845	1
362	10662184	196.184188630256	1
362	10666041	196.526894147473	1
362	10675955	197.184187674703	1
362	10676413	197.238683468203	1
362	10679382	197.522511089791	1
362	10689747	198.18418679236	1
362	10697649	198.821032651949	1
362	10703785	199.18419072176	1
362	10711798	199.821036675541	1
363	10444558	179	4.2559510328259
363	10456221	180	6.2021385052369
363	10467957	181	8.1833457246643
363	10480063	182	10.19988962774
363	10492198	183	11.208953705903
363	10504268	184	11.245057872506
363	10516753	185	11.271461129275
363	10529176	186	11.25604914544
363	10541512	187	11.209546431872
363	10554306	188	11.204416298818
363	10567047	189	11.262415180198
363	10579764	190	11.175389139148
363	10592919	191	11.272192315287
363	10605993	192	11.224730258522
363	10619056	193	11.229705095541
363	10632438	194	11.269006350306
363	10645866	195	11.24105178319
363	10659225	196	11.274169162431
363	10672991	197	11.240924101242
363	10686789	198	11.239092721846
363	10700559	199	10.666956501824
363	10714731	200	6.2776164294369
364	10456221	180	1.946187472411
364	10467957	181	1.9812072194274
364	10480063	182	2.0165439030761
364	10492198	183	1.0090640781628
364	10504268	184	0.036104166603183
364	10516753	185	0.026403256768827
364	10529176	186	-0.015411983835511
364	10541512	187	-0.046502713568044
364	10554306	188	-0.0051301330537523
364	10567047	189	0.057998881379607
364	10579764	190	-0.087026041049976
364	10592919	191	0.096803176139947
364	10605993	192	-0.047462056765799
364	10619056	193	0.0049748370191089
364	10632438	194	0.039301254765595
364	10645866	195	-0.027954567116684
364	10659225	196	0.033117379241157
364	10672991	197	-0.033245061188936
364	10686789	198	-0.0018313793954441
364	10700559	199	-0.57213622002284
364	10714731	200	-4.3893400723867
365	10456221	180	4.3402267717566
365	10467957	181	5.462699413605
365	10480063	182	6.6570872828171
365	10492198	183	4.5066602793688
365	10504268	184	1.8816643895005
365	10516753	185	1.857743511712
365	10529176	186	1.7429275373576
365	10541512	187	1.6552392375042
365	10554306	188	1.7665875909396
365	10567047	189	1.9426895034787
365	10579764	190	1.5436482337602
365	10592919	191	2.0490574874983
365	10605993	192	1.6537358285979
365	10619056	193	1.7960057533577
365	10632438	194	1.8925518380747
365	10645866	195	1.7077548399398
365	10659225	196	1.8762295219078
365	10672991	197	1.6934127892766
365	10686789	198	1.7783627639407
365	10700559	199	0.973
365	10714731	200	0.973
366	10467957	181	2414.8869719487
366	10480063	182	2412.0891685437
366	10492198	183	2407.4832244107
366	10504268	184	2402.6316081821
366	10516753	185	2396.4217238476
366	10529176	186	2388.9759162796
366	10541512	187	2380.2930477532
366	10554306	188	2371.2873360493
366	10567047	189	2362.2957468384
366	10579764	190	2353.2848869817
366	10592919	191	2344.2809516137
366	10605993	192	2336.2374512658
366	10619056	193	2333.916369168
366	10632438	194	2341.960756039
366	10645866	195	2351.5887239383
366	10659225	196	2360.8398912055
366	10672991	197	2372.7968267174
366	10686789	198	2384.6083666623
366	10700559	199	2396.3133019907
366	10714731	200	2406.1606380916
367	10467957	181	1578.4469180359
367	10480063	182	1579.4742568452
367	10492198	183	1581.2280203402
367	10504268	184	1586.1420391956
367	10516753	185	1592.4317965191
367	10529176	186	1599.9733738108
367	10541512	187	1608.7679234296
367	10554306	188	1617.8894687099
367	10567047	189	1626.9967098506
367	10579764	190	1636.1234695008
367	10592919	191	1645.2432155982
367	10605993	192	1655.2111226991
367	10619056	193	1667.5912558651
367	10632438	194	1677.0279644988
367	10645866	195	1685.4034747668
367	10659225	196	1693.7464091238
367	10672991	197	1695.7368114991
367	10686789	198	1697.2736631949
367	10700559	199	1698.4269676683
367	10714731	200	1699.3580990564
368	10471829	181.407017001767	1
368	10483318	182.32135065183	1
368	10486433	182.579349173118	1
368	10498542	183.579344619897	1
368	10500850	183.747484157568	1
368	10502011	183.829499452144	1
368	10510920	184.579346561685	1
368	10514459	184.829506926062	1
368	10526897	185.829501390241	1
368	10555277	188.048650643815	1
368	10572875	189.522499658692	1
368	10576241	189.74748544258	1
368	10587482	190.60577169179	1
368	10599419	191.526895050695	1
368	10617089	192.877732415702	1
368	10632353	193.996664622804	1
368	10675952	197.18418761826	1
368	10684546	197.877724104012	1
368	10686710	197.996665063188	1
368	10689743	198.1841867363	1
368	10693605	198.526889751648	1
368	10703782	199.184190666577	1
368	10710132	199.690629363388	1
369	10480063	182	3.7929458832696
369	10492198	183	5.8724947796834
369	10504268	184	7.7058304374388
369	10516753	185	9.6863647654468
369	10529176	186	11.416321079552
369	10541512	187	12.838535775356
369	10554306	188	12.775931897515
369	10567047	189	12.809338575056
369	10579764	190	12.813795178248
369	10592919	191	12.840986282604
369	10605993	192	12.821622975585
369	10619056	193	12.819883423834
369	10632438	194	12.84857585862
369	10645866	195	12.625642223011
369	10659225	196	12.334481723451
369	10672991	197	12.006549600035
369	10686789	198	11.857615315015
369	10700559	199	11.654832294357
369	10714731	200	8.5572923352658
370	10492198	183	2.0795488964138
370	10504268	184	1.8333356577554
370	10516753	185	1.9805343280081
370	10529176	186	1.7299563141051
370	10541512	187	1.4222146958037
370	10554306	188	-0.062603877841029
370	10567047	189	0.033406677541789
370	10579764	190	0.0044566031917928
370	10592919	191	0.027191104355733
370	10605993	192	-0.01936330701923
370	10619056	193	-0.0017395517509424
370	10632438	194	0.028692434786352
370	10645866	195	-0.22293363560906
370	10659225	196	-0.29116049955983
370	10672991	197	-0.32793212341656
370	10686789	198	-0.14893428502002
370	10700559	199	-0.20278302065772
370	10714731	200	-3.0975399590911
371	10492198	183	4.3551234681526
371	10504268	184	4.9286962074888
371	10516753	185	6.2846137774362
371	10529176	186	6.5578619305513
371	10541512	187	6.3252747246825
371	10554306	188	1.726195409371
371	10567047	189	2.0252074870474
371	10579764	190	1.9362596385835
371	10592919	191	2.009196426713
371	10605993	192	1.8633982847393
371	10619056	193	1.9176934555565
371	10632438	194	2.0146081909343
371	10645866	195	1.2266460270996
371	10659225	196	0.973
371	10672991	197	0.973
371	10686789	198	1.4104196652783
371	10700559	199	1.2488974881489
371	10714731	200	0.973
372	10504268	184	2414.8551852707
372	10516753	185	2411.8928572516
372	10529176	186	2407.2199654937
372	10541512	187	2402.2467412598
372	10554306	188	2395.9771393542
372	10567047	189	2388.3202471264
372	10579764	190	2379.3143988616
372	10592919	191	2369.9376381834
372	10605993	192	2360.5649267873
372	10619056	193	2351.183865039
372	10632438	194	2341.9647111557
372	10645866	195	2334.9206664417
372	10659225	196	2335.6271176197
372	10672991	197	2345.8468582807
372	10686789	198	2355.741818498
372	10700559	199	2367.1346957005
372	10714731	200	2380.1781358137
373	10504268	184	1578.4585899385
373	10516753	185	1579.546341327
373	10529176	186	1581.4946653554
373	10541512	187	1586.5318563664
373	10554306	188	1592.8820993621
373	10567047	189	1600.6374763343
373	10579764	190	1609.7591599328
373	10592919	191	1619.2565267067
373	10605993	192	1628.7497921158
373	10619056	193	1638.2515152805
373	10632438	194	1647.8793386379
373	10645866	195	1658.8853894155
373	10659225	196	1671.6807420524
373	10672991	197	1680.2253164984
373	10686789	198	1689.1488394635
373	10700559	199	1694.8905017339
373	10714731	200	1696.7463668566
374	10507582	184.321348148532	1
374	10510923	184.579346587513	1
374	10513280	184.747478607918	1
374	10514462	184.829506949964	1
374	10517753	185.057807261908	1
374	10520060	185.321355588083	1
374	10523379	185.579346268037	1
374	10526900	185.82950143172	1
374	10538066	186.74748177482	1
374	10539244	186.829510172005	1
374	10541688	187.012003077363	1
374	10554481	188.012013004485	1
374	10588447	190.673470548931	1
374	10599002	191.522507091361	1
374	10613658	192.605778436766	1
374	10625590	193.52688700487	1
375	10516753	185	3.9643027338979
375	10529176	186	6.0227321062016
375	10541512	187	7.9011328707042
375	10554306	188	9.8495434551139
375	10567047	189	11.713924308839
375	10579764	190	13.336556788755
375	10592919	191	13.381397598181
375	10605993	192	13.278599163818
375	10619056	193	13.380366363074
375	10632438	194	13.365606793428
375	10645866	195	13.271254067784
375	10659225	196	13.372255800539
375	10672991	197	13.354571631283
375	10686789	198	13.290690937596
375	10700559	199	13.289190197936
375	10714731	200	12.553473782477
376	10529176	186	2.0584293723037
376	10541512	187	1.8784007645026
376	10554306	188	1.9484105844097
376	10567047	189	1.8643808537256
376	10579764	190	1.6226324799157
376	10592919	191	0.044840809425805
376	10605993	192	-0.10279843436321
376	10619056	193	0.10176719925599
376	10632438	194	-0.014759569645394
376	10645866	195	-0.09435272564413
376	10659225	196	0.10100173275452
376	10672991	197	-0.017684169255663
376	10686789	198	-0.063880693686659
376	10700559	199	-0.0015007396601145
376	10714731	200	-0.73571641545892
377	10529176	186	4.4084839408215
377	10541512	187	5.1135166973203
377	10554306	188	6.2984336628174
377	10567047	189	7.0868149075066
377	10579764	190	7.1878060954396
377	10592919	191	2.1214752730111
377	10605993	192	1.637876526918
377	10619056	193	2.3049319357253
377	10632438	194	1.9277807405501
377	10645866	195	1.664357970146
377	10659225	196	2.3014727066456
377	10672991	197	1.9173291015086
377	10686789	198	1.7634073937453
377	10700559	199	1.963068599996
377	10714731	200	0.973
378	10541512	187	2414.8702641105
378	10554306	188	2411.9341807713
378	10567047	189	2407.3346431596
378	10579764	190	2402.4955023477
378	10592919	191	2396.2337028445
378	10605993	192	2388.617701258
378	10619056	193	2379.5315396218
378	10632438	194	2369.9696770835
378	10645866	195	2360.415168183
378	10659225	196	2350.858384729
378	10672991	197	2341.5048706875
378	10686789	198	2334.7527693885
378	10700559	199	2336.5299108647
378	10714731	200	2347.025150875
379	10541512	187	1578.4530530674
379	10554306	188	1579.5311675463
379	10567047	189	1581.3785126787
379	10579764	190	1586.2798956549
379	10592919	191	1592.6222358923
379	10605993	192	1600.3361962782
379	10619056	193	1609.5392262572
379	10632438	194	1619.2240757141
379	10645866	195	1628.9014769504
379	10659225	196	1638.5811819946
379	10672991	197	1648.4680060074
379	10686789	198	1659.8965306235
379	10700559	199	1672.6422304241
379	10714731	200	1681.2879302735
380	10541691	187.012003101832	1
380	10544394	187.184193123911	1
380	10550795	187.747478742079	1
380	10551989	187.829507116061	1
380	10554485	188.012013045922	1
380	10557179	188.184190063608	1
380	10563540	188.747475692464	1
380	10567227	189.012010009347	1
380	10568286	189.057804363086	1
380	10569908	189.184187015919	1
380	10579950	190.012006969433	1
380	10627946	193.690626290457	1
380	10652383	195.52688887053	1
380	10670773	196.877725251653	1
381	10554306	188	3.9763429005056
381	10567047	189	5.848355162538
381	10579764	190	7.8624514494425
381	10592919	191	9.7964631875636
381	10605993	192	11.739015889201
381	10619056	193	13.667736121664
381	10632438	194	13.538274338474
381	10645866	195	13.571786083421
381	10659225	196	13.656481304821
381	10672991	197	13.569957953415
381	10686789	198	13.631839803851
381	10700559	199	13.640937318435
381	10714731	200	13.572353462708
382	10567047	189	1.8720122620324
382	10579764	190	2.0140962869045
382	10592919	191	1.934011738121
382	10605993	192	1.9425527016376
382	10619056	193	1.9287202324624
382	10632438	194	-0.12946178318933
382	10645866	195	0.033511744947173
382	10659225	196	0.084695221399889
382	10672991	197	-0.086523351406214
382	10686789	198	0.061881850436331
382	10700559	199	0.0090975145832637
382	10714731	200	-0.068583855726757
383	10567047	189	4.0491178702271
383	10579764	190	5.3505966461798
383	10592919	191	6.2355339704786
383	10605993	192	7.3214117821811
383	10619056	193	8.3582546639874
383	10632438	194	1.5699136110099
383	10645866	195	2.1052449745534
383	10659225	196	2.2828208212203
383	10672991	197	1.7124907517654
383	10686789	198	2.2049096634387
383	10700559	199	2.0324263297917
383	10714731	200	1.7713575947235
384	10579764	190	2414.8508010724
384	10592919	191	2411.9084367992
384	10605993	192	2407.2392963679
384	10619056	193	2402.1479154518
384	10632438	194	2395.632481394
384	10645866	195	2387.6737717849
384	10659225	196	2378.360427147
384	10672991	197	2368.5746158336
384	10686789	198	2358.7860297406
384	10700559	199	2348.99573583
384	10714731	200	2339.68132197
385	10579764	190	1578.4601997929
385	10592919	191	1579.540620598
385	10605993	192	1581.4750858434
385	10619056	193	1586.6319532953
385	10632438	194	1593.2311903946
385	10645866	195	1601.2922667935
385	10659225	196	1610.7254018551
385	10672991	197	1620.6370805698
385	10686789	198	1630.5515697533
385	10700559	199	1640.4677887214
385	10714731	200	1650.8024321869
386	10579953	190.012006995366	1
386	10581044	190.057814373534	1
386	10582671	190.184184028986	1
386	10590325	190.821027174387	1
386	10593109	191.012004263348	1
386	10698350	198.877728196725	1
387	10592919	191	4.0010424112291
387	10605993	192	6.0015442033527
387	10619056	193	8.2219226935408
387	10632438	194	10.204648791202
387	10645866	195	12.161804024679
387	10659225	196	13.948325757734
387	10672991	197	13.892506072747
387	10686789	198	13.920893963794
387	10700559	199	13.977768345661
387	10714731	200	13.937570506728
388	10605993	192	2.0005017921235
388	10619056	193	2.2203784901882
388	10632438	194	1.9827260976611
388	10645866	195	1.9571552334772
388	10659225	196	1.7865217330544
388	10672991	197	-0.05581968498649
388	10686789	198	0.028387891047169
388	10700559	199	0.056874381867237
388	10714731	200	-0.040197838933674
389	10605993	192	4.3129538249771
389	10619056	193	5.9576129758212
389	10632438	194	6.5765982229107
389	10645866	195	7.5992725650847
389	10659225	196	8.0390342394294
389	10672991	197	1.8409783676152
389	10686789	198	2.1259984037863
389	10700559	199	2.2281589531847
389	10714731	200	1.8974373415613
390	10619056	193	2414.827880781
390	10632438	194	2411.7812214775
390	10645866	195	2407.0734643153
390	10659225	196	2401.9797134795
390	10672991	197	2395.6182120305
390	10686789	198	2387.9007547648
390	10700559	199	2378.8788586752
390	10714731	200	2369.1016335692
391	10619056	193	1578.4686160041
391	10632438	194	1579.5873334007
391	10645866	195	1581.6430508662
391	10659225	196	1586.8023187201
391	10672991	197	1593.2456432935
391	10686789	198	1601.0623643054
391	10700559	199	1610.2003021389
391	10714731	200	1620.1032842081
392	10620080	193.04865555108	1
392	10634138	194.092007094366	1
392	10641159	194.673464043156	1
392	10660253	196.048651477708	1
392	10668217	196.673473627829	1
392	10681989	197.673472655827	1
392	10695994	198.690625762263	1
392	10708953	199.605776966534	1
393	10632438	194	4.0963891555032
393	10645866	195	6.231236892856
393	10659225	196	7.9898347035155
393	10672991	197	9.8732597323822
393	10686789	198	11.781043307936
393	10700559	199	13.603983150261
393	10714731	200	13.89932602556
394	10645866	195	2.1348477373528
394	10659225	196	1.7585978106596
394	10672991	197	1.8834250288666
394	10686789	198	1.9077835755539
394	10700559	199	1.8229398423247
394	10714731	200	0.29534287529879
395	10645866	195	4.6389066091359
395	10659225	196	4.9288158443181
395	10672991	197	6.1567230446015
395	10686789	198	7.2460077523704
395	10700559	199	7.9754529266501
395	10714731	200	3.0178830022619
396	10659225	196	2414.873747339
396	10672991	197	2412.0088568291
396	10686789	198	2407.5655682283
396	10700559	199	2402.8576810701
396	10714731	200	2396.7587246678
397	10659225	196	1578.451774044
397	10672991	197	1579.5037468877
397	10686789	198	1581.1446173973
397	10700559	199	1585.9130585045
397	10714731	200	1592.0904611154
398	10660952	196.092003492626	1
398	10668220	196.673473653335	1
398	10674731	197.092002462502	1
398	10681992	197.673472699087	1
398	10685856	197.935689933721	1
398	10687828	198.048655509915	1
398	10688523	198.092001511439	1
398	10690220	198.238682988455	1
398	10695774	198.673471793111	1
398	10695997	198.690625823201	1
398	10701608	199.04865939447	1
398	10704263	199.2386869316	1
398	10710141	199.690629736006	1
399	10672991	197	3.8129964193388
399	10686789	198	5.6550626429229
399	10700559	199	7.6229945084372
399	10714731	200	9.5155542239978
400	10686789	198	1.8420662235841
400	10700559	199	1.9679318655143
400	10714731	200	1.8925597155606
401	10686789	198	3.9100036745225
401	10700559	199	5.1340242103973
401	10714731	200	5.9887332085942
402	10700559	199	2414.8772939658
402	10714731	200	2411.9660243392
403	10700559	199	1578.4504717411
403	10714731	200	1579.5194747541
404	10701611	199.048659418508	1
404	10709915	199.673462691187	1
404	10710144	199.69062975895	1
405	10714731	200	4.0133306786479

