version 2
run WithBeaconing-0-20230724-02:13:55-26859
attr configname WithBeaconing
attr datetime 20230724-02:13:55
attr experiment WithBeaconing
attr inifile omnetpp_pva_rsu.ini
attr iterationvars ""
attr iterationvarsf ""
attr measurement ""
attr network PriorityV2VAttackRSU
attr processid 26859
attr repetition 0
attr replication #0
attr resultdir results
attr runnumber 0
attr seedset 0
param *.node[*].appl.sendBeacons true
param *.rsu[*].appl.sendBeacons true
param *.playgroundSizeX 2500m
param *.playgroundSizeY 2500m
param *.playgroundSizeZ 50m
param *.annotations.draw true
param *.obstacles.obstacles "xmldoc(\"config.xml\", \"//AnalogueModel[@type='SimpleObstacleShadowing']/obstacles\")"
param *.manager.updateInterval 1s
param *.manager.host "\"localhost\""
param *.manager.port 9999
param *.manager.autoShutdown true
param *.manager.launchConfig "xmldoc(\"erlangen.launchd.xml\")"
param *.rsu[0].mobility.x 2000
param *.rsu[0].mobility.y 2000
param *.rsu[0].mobility.z 3
param *.rsu[*].applType "\"TraCIDemoRSU11p\""
param *.rsu[*].appl.headerLength "80 bit"
param *.rsu[*].appl.sendBeacons false
param *.rsu[*].appl.dataOnSch false
param *.rsu[*].appl.beaconInterval 1s
param *.rsu[*].appl.beaconUserPriority 7
param *.rsu[*].appl.dataUserPriority 5
param *.rsu[*].nic.phy80211p.antennaOffsetZ "0 m"
param *.connectionManager.sendDirect true
param *.connectionManager.maxInterfDist 2600m
param *.connectionManager.drawMaxIntfDist false
param *.**.nic.mac1609_4.useServiceChannel false
param *.**.nic.mac1609_4.txPower 20mW
param *.**.nic.mac1609_4.bitrate 6Mbps
param *.**.nic.phy80211p.minPowerLevel -110dBm
param *.**.nic.phy80211p.useNoiseFloor true
param *.**.nic.phy80211p.noiseFloor -98dBm
param *.**.nic.phy80211p.decider "xmldoc(\"config.xml\")"
param *.**.nic.phy80211p.analogueModels "xmldoc(\"config.xml\")"
param *.**.nic.phy80211p.usePropagationDelay true
param *.**.nic.phy80211p.antenna "xmldoc(\"antenna.xml\", \"/root/Antenna[@id='monopole']\")"
param *.node[*].nic.phy80211p.antennaOffsetY "0 m"
param *.node[*].nic.phy80211p.antennaOffsetZ "1.895 m"
param *.attacker[*].nic.phy80211p.antennaOffsetY "0 m"
param *.attacker[*].nic.phy80211p.antennaOffsetZ "1.895 m"
param *.manager.moduleType "\"vtype1=org.car2x.veins.nodes.Car *=org.car2x.veins.nodes.Car\""
param *.manager.moduleName "\"vtype1=attacker *=node\""
param *.node[*].applType "\"TraCIDemo11p\""
param *.node[*].appl.headerLength "80 bit"
param *.node[*].appl.sendBeacons true
param *.node[*].appl.dataOnSch false
param *.node[*].appl.beaconInterval 1s
param *.node[*].appl.dataUserPriority 7
param *.attacker[*].applType "\"TraCIV2Vp\""
param *.attacker[*].appl.headerLength "80 bit"
param *.attacker[*].appl.sendBeacons true
param *.attacker[*].appl.dataOnSch false
param *.attacker[*].appl.beaconInterval 1s
param *.attacker[*].appl.dataUserPriority 1
param *.node[*].veinsmobility.x 0
param *.node[*].veinsmobility.y 0
param *.node[*].veinsmobility.z 0
param *.node[*].veinsmobility.setHostSpeed false
param *.attacker[*].veinsmobility.x 0
param *.attacker[*].veinsmobility.y 0
param *.attacker[*].veinsmobility.z 0
param *.attacker[*].veinsmobility.setHostSpeed false

scalar PriorityV2VAttackRSU.attacker[19].appl generatedWSMs 690000
scalar PriorityV2VAttackRSU.attacker[19].appl receivedWSMs 23142
scalar PriorityV2VAttackRSU.attacker[19].appl generatedBSMs 26
scalar PriorityV2VAttackRSU.attacker[19].appl receivedBSMs 270
scalar PriorityV2VAttackRSU.attacker[19].appl generatedWSAs 0
scalar PriorityV2VAttackRSU.attacker[19].appl receivedWSAs 0
scalar PriorityV2VAttackRSU.attacker[19].nic.phy80211p busyTime 0.2091159999999
scalar PriorityV2VAttackRSU.attacker[19].nic.mac1609_4 ReceivedUnicastPackets 0
scalar PriorityV2VAttackRSU.attacker[19].nic.mac1609_4 ReceivedBroadcasts 23412
scalar PriorityV2VAttackRSU.attacker[19].nic.mac1609_4 SentPackets 32024
scalar PriorityV2VAttackRSU.attacker[19].nic.mac1609_4 SentAcknowledgements 0
scalar PriorityV2VAttackRSU.attacker[19].nic.mac1609_4 RetriesExceeded 0
scalar PriorityV2VAttackRSU.attacker[19].nic.mac1609_4 SNIRLostPackets 211
scalar PriorityV2VAttackRSU.attacker[19].nic.mac1609_4 RXTXLostPackets 3125
scalar PriorityV2VAttackRSU.attacker[19].nic.mac1609_4 TotalLostPackets 3336
scalar PriorityV2VAttackRSU.attacker[19].nic.mac1609_4 DroppedPacketsInMac 0
scalar PriorityV2VAttackRSU.attacker[19].nic.mac1609_4 TooLittleTime 0
scalar PriorityV2VAttackRSU.attacker[19].nic.mac1609_4 TimesIntoBackoff 32038
scalar PriorityV2VAttackRSU.attacker[19].nic.mac1609_4 SlotsBackoff 239878
scalar PriorityV2VAttackRSU.attacker[19].nic.mac1609_4 NumInternalContention 0
scalar PriorityV2VAttackRSU.attacker[19].nic.mac1609_4 totalBusyTime 12.87712
scalar PriorityV2VAttackRSU.attacker[19].nic.mac1609_4 NodeDownCount 0
scalar PriorityV2VAttackRSU.attacker[19].nic.mac1609_4 retriesExceeded:count 0
attr source org_car2x_veins_modules_mac_sigRetriesExceeded
scalar PriorityV2VAttackRSU.attacker[19].nic.mac1609_4 sentAcks:count 0
attr source org_car2x_veins_modules_mac_sigSentAck
scalar PriorityV2VAttackRSU.attacker[19].nic.mac1609_4 sentPackets:count 32024
attr source org_car2x_veins_modules_mac_sigSentPacket
scalar PriorityV2VAttackRSU.attacker[19].nic.mac1609_4 collisions:count 0
attr source org_car2x_veins_modules_mac_sigCollision
scalar PriorityV2VAttackRSU.attacker[19].nic.mac1609_4 channelBusy:timeavg 0.49527384615366
attr source org_car2x_veins_modules_mac_sigChannelBusy
scalar PriorityV2VAttackRSU.attacker[19].veinsmobility startTime 57
scalar PriorityV2VAttackRSU.attacker[19].veinsmobility totalTime 25
scalar PriorityV2VAttackRSU.attacker[19].veinsmobility stopTime 83
scalar PriorityV2VAttackRSU.attacker[19].veinsmobility minSpeed 3.2022692176314
scalar PriorityV2VAttackRSU.attacker[19].veinsmobility maxSpeed 13.998651232829
scalar PriorityV2VAttackRSU.attacker[19].veinsmobility totalDistance 306.5760273435
scalar PriorityV2VAttackRSU.attacker[19].veinsmobility totalCO2Emission 71.255618900282
scalar PriorityV2VAttackRSU.manager roiArea 0
scalar PriorityV2VAttackRSU.rsu[0].appl generatedWSMs 28764
scalar PriorityV2VAttackRSU.rsu[0].appl receivedWSMs 28764
scalar PriorityV2VAttackRSU.rsu[0].appl generatedBSMs 200
scalar PriorityV2VAttackRSU.rsu[0].appl receivedBSMs 1372
scalar PriorityV2VAttackRSU.rsu[0].appl generatedWSAs 0
scalar PriorityV2VAttackRSU.rsu[0].appl receivedWSAs 0
scalar PriorityV2VAttackRSU.rsu[0].nic.phy80211p busyTime 0.034596359999978
scalar PriorityV2VAttackRSU.rsu[0].nic.mac1609_4 ReceivedUnicastPackets 0
scalar PriorityV2VAttackRSU.rsu[0].nic.mac1609_4 ReceivedBroadcasts 30136
scalar PriorityV2VAttackRSU.rsu[0].nic.mac1609_4 SentPackets 28964
scalar PriorityV2VAttackRSU.rsu[0].nic.mac1609_4 SentAcknowledgements 0
scalar PriorityV2VAttackRSU.rsu[0].nic.mac1609_4 RetriesExceeded 0
scalar PriorityV2VAttackRSU.rsu[0].nic.mac1609_4 SNIRLostPackets 815
scalar PriorityV2VAttackRSU.rsu[0].nic.mac1609_4 RXTXLostPackets 3125
scalar PriorityV2VAttackRSU.rsu[0].nic.mac1609_4 TotalLostPackets 3940
scalar PriorityV2VAttackRSU.rsu[0].nic.mac1609_4 DroppedPacketsInMac 0
scalar PriorityV2VAttackRSU.rsu[0].nic.mac1609_4 TooLittleTime 0
scalar PriorityV2VAttackRSU.rsu[0].nic.mac1609_4 TimesIntoBackoff 29256
scalar PriorityV2VAttackRSU.rsu[0].nic.mac1609_4 SlotsBackoff 219017
scalar PriorityV2VAttackRSU.rsu[0].nic.mac1609_4 NumInternalContention 0
scalar PriorityV2VAttackRSU.rsu[0].nic.mac1609_4 totalBusyTime 13.629444
scalar PriorityV2VAttackRSU.rsu[0].nic.mac1609_4 NodeDownCount 0
scalar PriorityV2VAttackRSU.rsu[0].nic.mac1609_4 retriesExceeded:count 0
attr source org_car2x_veins_modules_mac_sigRetriesExceeded
scalar PriorityV2VAttackRSU.rsu[0].nic.mac1609_4 sentAcks:count 0
attr source org_car2x_veins_modules_mac_sigSentAck
scalar PriorityV2VAttackRSU.rsu[0].nic.mac1609_4 sentPackets:count 28964
attr source org_car2x_veins_modules_mac_sigSentPacket
scalar PriorityV2VAttackRSU.rsu[0].nic.mac1609_4 collisions:count 0
attr source org_car2x_veins_modules_mac_sigCollision
scalar PriorityV2VAttackRSU.rsu[0].nic.mac1609_4 channelBusy:timeavg 0.06814721999998
attr source org_car2x_veins_modules_mac_sigChannelBusy
scalar PriorityV2VAttackRSU.node[0].appl generatedWSMs 1
scalar PriorityV2VAttackRSU.node[0].appl receivedWSMs 54938
scalar PriorityV2VAttackRSU.node[0].appl generatedBSMs 199
scalar PriorityV2VAttackRSU.node[0].appl receivedBSMs 1038
scalar PriorityV2VAttackRSU.node[0].appl generatedWSAs 0
scalar PriorityV2VAttackRSU.node[0].appl receivedWSAs 0
scalar PriorityV2VAttackRSU.node[0].nic.phy80211p busyTime 0.071499497487462
scalar PriorityV2VAttackRSU.node[0].nic.mac1609_4 ReceivedUnicastPackets 0
scalar PriorityV2VAttackRSU.node[0].nic.mac1609_4 ReceivedBroadcasts 55976
scalar PriorityV2VAttackRSU.node[0].nic.mac1609_4 SentPackets 200
scalar PriorityV2VAttackRSU.node[0].nic.mac1609_4 SentAcknowledgements 0
scalar PriorityV2VAttackRSU.node[0].nic.mac1609_4 RetriesExceeded 0
scalar PriorityV2VAttackRSU.node[0].nic.mac1609_4 SNIRLostPackets 6038
scalar PriorityV2VAttackRSU.node[0].nic.mac1609_4 RXTXLostPackets 0
scalar PriorityV2VAttackRSU.node[0].nic.mac1609_4 TotalLostPackets 6038
scalar PriorityV2VAttackRSU.node[0].nic.mac1609_4 DroppedPacketsInMac 0
scalar PriorityV2VAttackRSU.node[0].nic.mac1609_4 TooLittleTime 0
scalar PriorityV2VAttackRSU.node[0].nic.mac1609_4 TimesIntoBackoff 216
scalar PriorityV2VAttackRSU.node[0].nic.mac1609_4 SlotsBackoff 330
scalar PriorityV2VAttackRSU.node[0].nic.mac1609_4 NumInternalContention 0
scalar PriorityV2VAttackRSU.node[0].nic.mac1609_4 totalBusyTime 13.518008
scalar PriorityV2VAttackRSU.node[0].nic.mac1609_4 NodeDownCount 0
scalar PriorityV2VAttackRSU.node[0].nic.mac1609_4 retriesExceeded:count 0
attr source org_car2x_veins_modules_mac_sigRetriesExceeded
scalar PriorityV2VAttackRSU.node[0].nic.mac1609_4 sentAcks:count 0
attr source org_car2x_veins_modules_mac_sigSentAck
scalar PriorityV2VAttackRSU.node[0].nic.mac1609_4 sentPackets:count 200
attr source org_car2x_veins_modules_mac_sigSentPacket
scalar PriorityV2VAttackRSU.node[0].nic.mac1609_4 collisions:count 0
attr source org_car2x_veins_modules_mac_sigCollision
scalar PriorityV2VAttackRSU.node[0].nic.mac1609_4 channelBusy:timeavg 0.067929688442229
attr source org_car2x_veins_modules_mac_sigChannelBusy
scalar PriorityV2VAttackRSU.node[0].veinsmobility startTime 1
scalar PriorityV2VAttackRSU.node[0].veinsmobility totalTime 199
scalar PriorityV2VAttackRSU.node[0].veinsmobility stopTime 200
scalar PriorityV2VAttackRSU.node[0].veinsmobility minSpeed 4.1061966058897
scalar PriorityV2VAttackRSU.node[0].veinsmobility maxSpeed 13.999815066161
scalar PriorityV2VAttackRSU.node[0].veinsmobility totalDistance 2693.6866885718
scalar PriorityV2VAttackRSU.node[0].veinsmobility totalCO2Emission 456.50124461463
scalar PriorityV2VAttackRSU.node[1].appl generatedWSMs 1
scalar PriorityV2VAttackRSU.node[1].appl receivedWSMs 55680
scalar PriorityV2VAttackRSU.node[1].appl generatedBSMs 196
scalar PriorityV2VAttackRSU.node[1].appl receivedBSMs 1084
scalar PriorityV2VAttackRSU.node[1].appl generatedWSAs 0
scalar PriorityV2VAttackRSU.node[1].appl receivedWSAs 0
scalar PriorityV2VAttackRSU.node[1].nic.phy80211p busyTime 0.072638979591862
scalar PriorityV2VAttackRSU.node[1].nic.mac1609_4 ReceivedUnicastPackets 0
scalar PriorityV2VAttackRSU.node[1].nic.mac1609_4 ReceivedBroadcasts 56764
scalar PriorityV2VAttackRSU.node[1].nic.mac1609_4 SentPackets 197
scalar PriorityV2VAttackRSU.node[1].nic.mac1609_4 SentAcknowledgements 0
scalar PriorityV2VAttackRSU.node[1].nic.mac1609_4 RetriesExceeded 0
scalar PriorityV2VAttackRSU.node[1].nic.mac1609_4 SNIRLostPackets 5335
scalar PriorityV2VAttackRSU.node[1].nic.mac1609_4 RXTXLostPackets 2
scalar PriorityV2VAttackRSU.node[1].nic.mac1609_4 TotalLostPackets 5337
scalar PriorityV2VAttackRSU.node[1].nic.mac1609_4 DroppedPacketsInMac 0
scalar PriorityV2VAttackRSU.node[1].nic.mac1609_4 TooLittleTime 0
scalar PriorityV2VAttackRSU.node[1].nic.mac1609_4 TimesIntoBackoff 213
scalar PriorityV2VAttackRSU.node[1].nic.mac1609_4 SlotsBackoff 335
scalar PriorityV2VAttackRSU.node[1].nic.mac1609_4 NumInternalContention 0
scalar PriorityV2VAttackRSU.node[1].nic.mac1609_4 totalBusyTime 13.523077
scalar PriorityV2VAttackRSU.node[1].nic.mac1609_4 NodeDownCount 0
scalar PriorityV2VAttackRSU.node[1].nic.mac1609_4 retriesExceeded:count 0
attr source org_car2x_veins_modules_mac_sigRetriesExceeded
scalar PriorityV2VAttackRSU.node[1].nic.mac1609_4 sentAcks:count 0
attr source org_car2x_veins_modules_mac_sigSentAck
scalar PriorityV2VAttackRSU.node[1].nic.mac1609_4 sentPackets:count 197
attr source org_car2x_veins_modules_mac_sigSentPacket
scalar PriorityV2VAttackRSU.node[1].nic.mac1609_4 collisions:count 0
attr source org_car2x_veins_modules_mac_sigCollision
scalar PriorityV2VAttackRSU.node[1].nic.mac1609_4 channelBusy:timeavg 0.068995290816345
attr source org_car2x_veins_modules_mac_sigChannelBusy
scalar PriorityV2VAttackRSU.node[1].veinsmobility startTime 4
scalar PriorityV2VAttackRSU.node[1].veinsmobility totalTime 196
scalar PriorityV2VAttackRSU.node[1].veinsmobility stopTime 200
scalar PriorityV2VAttackRSU.node[1].veinsmobility minSpeed 4.0332649588119
scalar PriorityV2VAttackRSU.node[1].veinsmobility maxSpeed 13.99976025953
scalar PriorityV2VAttackRSU.node[1].veinsmobility totalDistance 2648.1348968132
scalar PriorityV2VAttackRSU.node[1].veinsmobility totalCO2Emission 446.28884433544
scalar PriorityV2VAttackRSU.node[2].appl generatedWSMs 1
scalar PriorityV2VAttackRSU.node[2].appl receivedWSMs 56085
scalar PriorityV2VAttackRSU.node[2].appl generatedBSMs 193
scalar PriorityV2VAttackRSU.node[2].appl receivedBSMs 1117
scalar PriorityV2VAttackRSU.node[2].appl generatedWSAs 0
scalar PriorityV2VAttackRSU.node[2].appl receivedWSAs 0
scalar PriorityV2VAttackRSU.node[2].nic.phy80211p busyTime 0.073811979274637
scalar PriorityV2VAttackRSU.node[2].nic.mac1609_4 ReceivedUnicastPackets 0
scalar PriorityV2VAttackRSU.node[2].nic.mac1609_4 ReceivedBroadcasts 57202
scalar PriorityV2VAttackRSU.node[2].nic.mac1609_4 SentPackets 194
scalar PriorityV2VAttackRSU.node[2].nic.mac1609_4 SentAcknowledgements 0
scalar PriorityV2VAttackRSU.node[2].nic.mac1609_4 RetriesExceeded 0
scalar PriorityV2VAttackRSU.node[2].nic.mac1609_4 SNIRLostPackets 4976
scalar PriorityV2VAttackRSU.node[2].nic.mac1609_4 RXTXLostPackets 1
scalar PriorityV2VAttackRSU.node[2].nic.mac1609_4 TotalLostPackets 4977
scalar PriorityV2VAttackRSU.node[2].nic.mac1609_4 DroppedPacketsInMac 0
scalar PriorityV2VAttackRSU.node[2].nic.mac1609_4 TooLittleTime 0
scalar PriorityV2VAttackRSU.node[2].nic.mac1609_4 TimesIntoBackoff 203
scalar PriorityV2VAttackRSU.node[2].nic.mac1609_4 SlotsBackoff 321
scalar PriorityV2VAttackRSU.node[2].nic.mac1609_4 NumInternalContention 0
scalar PriorityV2VAttackRSU.node[2].nic.mac1609_4 totalBusyTime 13.52813
scalar PriorityV2VAttackRSU.node[2].nic.mac1609_4 NodeDownCount 0
scalar PriorityV2VAttackRSU.node[2].nic.mac1609_4 retriesExceeded:count 0
attr source org_car2x_veins_modules_mac_sigRetriesExceeded
scalar PriorityV2VAttackRSU.node[2].nic.mac1609_4 sentAcks:count 0
attr source org_car2x_veins_modules_mac_sigSentAck
scalar PriorityV2VAttackRSU.node[2].nic.mac1609_4 sentPackets:count 194
attr source org_car2x_veins_modules_mac_sigSentPacket
scalar PriorityV2VAttackRSU.node[2].nic.mac1609_4 collisions:count 0
attr source org_car2x_veins_modules_mac_sigCollision
scalar PriorityV2VAttackRSU.node[2].nic.mac1609_4 channelBusy:timeavg 0.070093937823853
attr source org_car2x_veins_modules_mac_sigChannelBusy
scalar PriorityV2VAttackRSU.node[2].veinsmobility startTime 7
scalar PriorityV2VAttackRSU.node[2].veinsmobility totalTime 193
scalar PriorityV2VAttackRSU.node[2].veinsmobility stopTime 200
scalar PriorityV2VAttackRSU.node[2].veinsmobility minSpeed 3.930963162637
scalar PriorityV2VAttackRSU.node[2].veinsmobility maxSpeed 13.998553946475
scalar PriorityV2VAttackRSU.node[2].veinsmobility totalDistance 2609.1058865436
scalar PriorityV2VAttackRSU.node[2].veinsmobility totalCO2Emission 440.27711144852
scalar PriorityV2VAttackRSU.node[3].appl generatedWSMs 1
scalar PriorityV2VAttackRSU.node[3].appl receivedWSMs 55120
scalar PriorityV2VAttackRSU.node[3].appl generatedBSMs 190
scalar PriorityV2VAttackRSU.node[3].appl receivedBSMs 1175
scalar PriorityV2VAttackRSU.node[3].appl generatedWSAs 0
scalar PriorityV2VAttackRSU.node[3].appl receivedWSAs 0
scalar PriorityV2VAttackRSU.node[3].nic.phy80211p busyTime 0.073683326315814
scalar PriorityV2VAttackRSU.node[3].nic.mac1609_4 ReceivedUnicastPackets 0
scalar PriorityV2VAttackRSU.node[3].nic.mac1609_4 ReceivedBroadcasts 56295
scalar PriorityV2VAttackRSU.node[3].nic.mac1609_4 SentPackets 191
scalar PriorityV2VAttackRSU.node[3].nic.mac1609_4 SentAcknowledgements 0
scalar PriorityV2VAttackRSU.node[3].nic.mac1609_4 RetriesExceeded 0
scalar PriorityV2VAttackRSU.node[3].nic.mac1609_4 SNIRLostPackets 4896
scalar PriorityV2VAttackRSU.node[3].nic.mac1609_4 RXTXLostPackets 1
scalar PriorityV2VAttackRSU.node[3].nic.mac1609_4 TotalLostPackets 4897
scalar PriorityV2VAttackRSU.node[3].nic.mac1609_4 DroppedPacketsInMac 0
scalar PriorityV2VAttackRSU.node[3].nic.mac1609_4 TooLittleTime 0
scalar PriorityV2VAttackRSU.node[3].nic.mac1609_4 TimesIntoBackoff 205
scalar PriorityV2VAttackRSU.node[3].nic.mac1609_4 SlotsBackoff 313
scalar PriorityV2VAttackRSU.node[3].nic.mac1609_4 NumInternalContention 0
scalar PriorityV2VAttackRSU.node[3].nic.mac1609_4 totalBusyTime 13.312439822714
scalar PriorityV2VAttackRSU.node[3].nic.mac1609_4 NodeDownCount 0
scalar PriorityV2VAttackRSU.node[3].nic.mac1609_4 retriesExceeded:count 0
attr source org_car2x_veins_modules_mac_sigRetriesExceeded
scalar PriorityV2VAttackRSU.node[3].nic.mac1609_4 sentAcks:count 0
attr source org_car2x_veins_modules_mac_sigSentAck
scalar PriorityV2VAttackRSU.node[3].nic.mac1609_4 sentPackets:count 191
attr source org_car2x_veins_modules_mac_sigSentPacket
scalar PriorityV2VAttackRSU.node[3].nic.mac1609_4 collisions:count 0
attr source org_car2x_veins_modules_mac_sigCollision
scalar PriorityV2VAttackRSU.node[3].nic.mac1609_4 channelBusy:timeavg 0.070065472751143
attr source org_car2x_veins_modules_mac_sigChannelBusy
scalar PriorityV2VAttackRSU.node[3].veinsmobility startTime 10
scalar PriorityV2VAttackRSU.node[3].veinsmobility totalTime 190
scalar PriorityV2VAttackRSU.node[3].veinsmobility stopTime 200
scalar PriorityV2VAttackRSU.node[3].veinsmobility minSpeed 4.0076977833542
scalar PriorityV2VAttackRSU.node[3].veinsmobility maxSpeed 13.99973450992
scalar PriorityV2VAttackRSU.node[3].veinsmobility totalDistance 2537.2725393719
scalar PriorityV2VAttackRSU.node[3].veinsmobility totalCO2Emission 434.49827877051
scalar PriorityV2VAttackRSU.node[4].appl generatedWSMs 1
scalar PriorityV2VAttackRSU.node[4].appl receivedWSMs 24209
scalar PriorityV2VAttackRSU.node[4].appl generatedBSMs 187
scalar PriorityV2VAttackRSU.node[4].appl receivedBSMs 3384
scalar PriorityV2VAttackRSU.node[4].appl generatedWSAs 0
scalar PriorityV2VAttackRSU.node[4].appl receivedWSAs 0
scalar PriorityV2VAttackRSU.node[4].nic.phy80211p busyTime 0.032084962566834
scalar PriorityV2VAttackRSU.node[4].nic.mac1609_4 ReceivedUnicastPackets 0
scalar PriorityV2VAttackRSU.node[4].nic.mac1609_4 ReceivedBroadcasts 27593
scalar PriorityV2VAttackRSU.node[4].nic.mac1609_4 SentPackets 188
scalar PriorityV2VAttackRSU.node[4].nic.mac1609_4 SentAcknowledgements 0
scalar PriorityV2VAttackRSU.node[4].nic.mac1609_4 RetriesExceeded 0
scalar PriorityV2VAttackRSU.node[4].nic.mac1609_4 SNIRLostPackets 241
scalar PriorityV2VAttackRSU.node[4].nic.mac1609_4 RXTXLostPackets 0
scalar PriorityV2VAttackRSU.node[4].nic.mac1609_4 TotalLostPackets 241
scalar PriorityV2VAttackRSU.node[4].nic.mac1609_4 DroppedPacketsInMac 0
scalar PriorityV2VAttackRSU.node[4].nic.mac1609_4 TooLittleTime 0
scalar PriorityV2VAttackRSU.node[4].nic.mac1609_4 TimesIntoBackoff 193
scalar PriorityV2VAttackRSU.node[4].nic.mac1609_4 SlotsBackoff 309
scalar PriorityV2VAttackRSU.node[4].nic.mac1609_4 NumInternalContention 0
scalar PriorityV2VAttackRSU.node[4].nic.mac1609_4 totalBusyTime 6.011276004034
scalar PriorityV2VAttackRSU.node[4].nic.mac1609_4 NodeDownCount 0
scalar PriorityV2VAttackRSU.node[4].nic.mac1609_4 retriesExceeded:count 0
attr source org_car2x_veins_modules_mac_sigRetriesExceeded
scalar PriorityV2VAttackRSU.node[4].nic.mac1609_4 sentAcks:count 0
attr source org_car2x_veins_modules_mac_sigSentAck
scalar PriorityV2VAttackRSU.node[4].nic.mac1609_4 sentPackets:count 188
attr source org_car2x_veins_modules_mac_sigSentPacket
scalar PriorityV2VAttackRSU.node[4].nic.mac1609_4 collisions:count 0
attr source org_car2x_veins_modules_mac_sigCollision
scalar PriorityV2VAttackRSU.node[4].nic.mac1609_4 channelBusy:timeavg 0.032145860984128
attr source org_car2x_veins_modules_mac_sigChannelBusy
scalar PriorityV2VAttackRSU.node[4].veinsmobility startTime 13
scalar PriorityV2VAttackRSU.node[4].veinsmobility totalTime 187
scalar PriorityV2VAttackRSU.node[4].veinsmobility stopTime 200
scalar PriorityV2VAttackRSU.node[4].veinsmobility minSpeed 4.1202440707026
scalar PriorityV2VAttackRSU.node[4].veinsmobility maxSpeed 13.998611656229
scalar PriorityV2VAttackRSU.node[4].veinsmobility totalDistance 1831.0817960766
scalar PriorityV2VAttackRSU.node[4].veinsmobility totalCO2Emission 363.33489750815
scalar PriorityV2VAttackRSU.node[5].appl generatedWSMs 1
scalar PriorityV2VAttackRSU.node[5].appl receivedWSMs 25460
scalar PriorityV2VAttackRSU.node[5].appl generatedBSMs 184
scalar PriorityV2VAttackRSU.node[5].appl receivedBSMs 3383
scalar PriorityV2VAttackRSU.node[5].appl generatedWSAs 0
scalar PriorityV2VAttackRSU.node[5].appl receivedWSAs 0
scalar PriorityV2VAttackRSU.node[5].nic.phy80211p busyTime 0.034197826086942
scalar PriorityV2VAttackRSU.node[5].nic.mac1609_4 ReceivedUnicastPackets 0
scalar PriorityV2VAttackRSU.node[5].nic.mac1609_4 ReceivedBroadcasts 28843
scalar PriorityV2VAttackRSU.node[5].nic.mac1609_4 SentPackets 185
scalar PriorityV2VAttackRSU.node[5].nic.mac1609_4 SentAcknowledgements 0
scalar PriorityV2VAttackRSU.node[5].nic.mac1609_4 RetriesExceeded 0
scalar PriorityV2VAttackRSU.node[5].nic.mac1609_4 SNIRLostPackets 259
scalar PriorityV2VAttackRSU.node[5].nic.mac1609_4 RXTXLostPackets 0
scalar PriorityV2VAttackRSU.node[5].nic.mac1609_4 TotalLostPackets 259
scalar PriorityV2VAttackRSU.node[5].nic.mac1609_4 DroppedPacketsInMac 0
scalar PriorityV2VAttackRSU.node[5].nic.mac1609_4 TooLittleTime 0
scalar PriorityV2VAttackRSU.node[5].nic.mac1609_4 TimesIntoBackoff 195
scalar PriorityV2VAttackRSU.node[5].nic.mac1609_4 SlotsBackoff 330
scalar PriorityV2VAttackRSU.node[5].nic.mac1609_4 NumInternalContention 0
scalar PriorityV2VAttackRSU.node[5].nic.mac1609_4 totalBusyTime 6.302697
scalar PriorityV2VAttackRSU.node[5].nic.mac1609_4 NodeDownCount 0
scalar PriorityV2VAttackRSU.node[5].nic.mac1609_4 retriesExceeded:count 0
attr source org_car2x_veins_modules_mac_sigRetriesExceeded
scalar PriorityV2VAttackRSU.node[5].nic.mac1609_4 sentAcks:count 0
attr source org_car2x_veins_modules_mac_sigSentAck
scalar PriorityV2VAttackRSU.node[5].nic.mac1609_4 sentPackets:count 185
attr source org_car2x_veins_modules_mac_sigSentPacket
scalar PriorityV2VAttackRSU.node[5].nic.mac1609_4 collisions:count 0
attr source org_car2x_veins_modules_mac_sigCollision
scalar PriorityV2VAttackRSU.node[5].nic.mac1609_4 channelBusy:timeavg 0.034253788043464
attr source org_car2x_veins_modules_mac_sigChannelBusy
scalar PriorityV2VAttackRSU.node[5].veinsmobility startTime 16
scalar PriorityV2VAttackRSU.node[5].veinsmobility totalTime 184
scalar PriorityV2VAttackRSU.node[5].veinsmobility stopTime 200
scalar PriorityV2VAttackRSU.node[5].veinsmobility minSpeed 4.11254450365
scalar PriorityV2VAttackRSU.node[5].veinsmobility maxSpeed 13.999388816282
scalar PriorityV2VAttackRSU.node[5].veinsmobility totalDistance 1814.5530043968
scalar PriorityV2VAttackRSU.node[5].veinsmobility totalCO2Emission 356.91908140046
scalar PriorityV2VAttackRSU.node[6].appl generatedWSMs 1
scalar PriorityV2VAttackRSU.node[6].appl receivedWSMs 29384
scalar PriorityV2VAttackRSU.node[6].appl generatedBSMs 181
scalar PriorityV2VAttackRSU.node[6].appl receivedBSMs 3435
scalar PriorityV2VAttackRSU.node[6].appl generatedWSAs 0
scalar PriorityV2VAttackRSU.node[6].appl receivedWSAs 0
scalar PriorityV2VAttackRSU.node[6].nic.phy80211p busyTime 0.039829038674009
scalar PriorityV2VAttackRSU.node[6].nic.mac1609_4 ReceivedUnicastPackets 0
scalar PriorityV2VAttackRSU.node[6].nic.mac1609_4 ReceivedBroadcasts 32819
scalar PriorityV2VAttackRSU.node[6].nic.mac1609_4 SentPackets 182
scalar PriorityV2VAttackRSU.node[6].nic.mac1609_4 SentAcknowledgements 0
scalar PriorityV2VAttackRSU.node[6].nic.mac1609_4 RetriesExceeded 0
scalar PriorityV2VAttackRSU.node[6].nic.mac1609_4 SNIRLostPackets 249
scalar PriorityV2VAttackRSU.node[6].nic.mac1609_4 RXTXLostPackets 1
scalar PriorityV2VAttackRSU.node[6].nic.mac1609_4 TotalLostPackets 250
scalar PriorityV2VAttackRSU.node[6].nic.mac1609_4 DroppedPacketsInMac 0
scalar PriorityV2VAttackRSU.node[6].nic.mac1609_4 TooLittleTime 0
scalar PriorityV2VAttackRSU.node[6].nic.mac1609_4 TimesIntoBackoff 189
scalar PriorityV2VAttackRSU.node[6].nic.mac1609_4 SlotsBackoff 297
scalar PriorityV2VAttackRSU.node[6].nic.mac1609_4 NumInternalContention 0
scalar PriorityV2VAttackRSU.node[6].nic.mac1609_4 totalBusyTime 7.216014
scalar PriorityV2VAttackRSU.node[6].nic.mac1609_4 NodeDownCount 0
scalar PriorityV2VAttackRSU.node[6].nic.mac1609_4 retriesExceeded:count 0
attr source org_car2x_veins_modules_mac_sigRetriesExceeded
scalar PriorityV2VAttackRSU.node[6].nic.mac1609_4 sentAcks:count 0
attr source org_car2x_veins_modules_mac_sigSentAck
scalar PriorityV2VAttackRSU.node[6].nic.mac1609_4 sentPackets:count 182
attr source org_car2x_veins_modules_mac_sigSentPacket
scalar PriorityV2VAttackRSU.node[6].nic.mac1609_4 collisions:count 0
attr source org_car2x_veins_modules_mac_sigCollision
scalar PriorityV2VAttackRSU.node[6].nic.mac1609_4 channelBusy:timeavg 0.039867480662959
attr source org_car2x_veins_modules_mac_sigChannelBusy
scalar PriorityV2VAttackRSU.node[6].veinsmobility startTime 19
scalar PriorityV2VAttackRSU.node[6].veinsmobility totalTime 181
scalar PriorityV2VAttackRSU.node[6].veinsmobility stopTime 200
scalar PriorityV2VAttackRSU.node[6].veinsmobility minSpeed 4.067372106413
scalar PriorityV2VAttackRSU.node[6].veinsmobility maxSpeed 12.741513219538
scalar PriorityV2VAttackRSU.node[6].veinsmobility totalDistance 1693.0244169444
scalar PriorityV2VAttackRSU.node[6].veinsmobility totalCO2Emission 322.50374475564
scalar PriorityV2VAttackRSU.node[7].appl generatedWSMs 1
scalar PriorityV2VAttackRSU.node[7].appl receivedWSMs 29379
scalar PriorityV2VAttackRSU.node[7].appl generatedBSMs 178
scalar PriorityV2VAttackRSU.node[7].appl receivedBSMs 3418
scalar PriorityV2VAttackRSU.node[7].appl generatedWSAs 0
scalar PriorityV2VAttackRSU.node[7].appl receivedWSAs 0
scalar PriorityV2VAttackRSU.node[7].nic.phy80211p busyTime 0.042177977528062
scalar PriorityV2VAttackRSU.node[7].nic.mac1609_4 ReceivedUnicastPackets 0
scalar PriorityV2VAttackRSU.node[7].nic.mac1609_4 ReceivedBroadcasts 32797
scalar PriorityV2VAttackRSU.node[7].nic.mac1609_4 SentPackets 179
scalar PriorityV2VAttackRSU.node[7].nic.mac1609_4 SentAcknowledgements 0
scalar PriorityV2VAttackRSU.node[7].nic.mac1609_4 RetriesExceeded 0
scalar PriorityV2VAttackRSU.node[7].nic.mac1609_4 SNIRLostPackets 1551
scalar PriorityV2VAttackRSU.node[7].nic.mac1609_4 RXTXLostPackets 0
scalar PriorityV2VAttackRSU.node[7].nic.mac1609_4 TotalLostPackets 1551
scalar PriorityV2VAttackRSU.node[7].nic.mac1609_4 DroppedPacketsInMac 0
scalar PriorityV2VAttackRSU.node[7].nic.mac1609_4 TooLittleTime 0
scalar PriorityV2VAttackRSU.node[7].nic.mac1609_4 TimesIntoBackoff 186
scalar PriorityV2VAttackRSU.node[7].nic.mac1609_4 SlotsBackoff 261
scalar PriorityV2VAttackRSU.node[7].nic.mac1609_4 NumInternalContention 0
scalar PriorityV2VAttackRSU.node[7].nic.mac1609_4 totalBusyTime 7.513131
scalar PriorityV2VAttackRSU.node[7].nic.mac1609_4 NodeDownCount 0
scalar PriorityV2VAttackRSU.node[7].nic.mac1609_4 retriesExceeded:count 0
attr source org_car2x_veins_modules_mac_sigRetriesExceeded
scalar PriorityV2VAttackRSU.node[7].nic.mac1609_4 sentAcks:count 0
attr source org_car2x_veins_modules_mac_sigSentAck
scalar PriorityV2VAttackRSU.node[7].nic.mac1609_4 sentPackets:count 179
attr source org_car2x_veins_modules_mac_sigSentPacket
scalar PriorityV2VAttackRSU.node[7].nic.mac1609_4 collisions:count 0
attr source org_car2x_veins_modules_mac_sigCollision
scalar PriorityV2VAttackRSU.node[7].nic.mac1609_4 channelBusy:timeavg 0.042208601123568
attr source org_car2x_veins_modules_mac_sigChannelBusy
scalar PriorityV2VAttackRSU.node[7].veinsmobility startTime 22
scalar PriorityV2VAttackRSU.node[7].veinsmobility totalTime 178
scalar PriorityV2VAttackRSU.node[7].veinsmobility stopTime 200
scalar PriorityV2VAttackRSU.node[7].veinsmobility minSpeed 4.0430421609162
scalar PriorityV2VAttackRSU.node[7].veinsmobility maxSpeed 13.996453029746
scalar PriorityV2VAttackRSU.node[7].veinsmobility totalDistance 1680.8960039323
scalar PriorityV2VAttackRSU.node[7].veinsmobility totalCO2Emission 321.15196740111
scalar PriorityV2VAttackRSU.node[8].appl generatedWSMs 1
scalar PriorityV2VAttackRSU.node[8].appl receivedWSMs 30656
scalar PriorityV2VAttackRSU.node[8].appl generatedBSMs 175
scalar PriorityV2VAttackRSU.node[8].appl receivedBSMs 3398
scalar PriorityV2VAttackRSU.node[8].appl generatedWSAs 0
scalar PriorityV2VAttackRSU.node[8].appl receivedWSAs 0
scalar PriorityV2VAttackRSU.node[8].nic.phy80211p busyTime 0.044582674285683
scalar PriorityV2VAttackRSU.node[8].nic.mac1609_4 ReceivedUnicastPackets 0
scalar PriorityV2VAttackRSU.node[8].nic.mac1609_4 ReceivedBroadcasts 34054
scalar PriorityV2VAttackRSU.node[8].nic.mac1609_4 SentPackets 176
scalar PriorityV2VAttackRSU.node[8].nic.mac1609_4 SentAcknowledgements 0
scalar PriorityV2VAttackRSU.node[8].nic.mac1609_4 RetriesExceeded 0
scalar PriorityV2VAttackRSU.node[8].nic.mac1609_4 SNIRLostPackets 1552
scalar PriorityV2VAttackRSU.node[8].nic.mac1609_4 RXTXLostPackets 0
scalar PriorityV2VAttackRSU.node[8].nic.mac1609_4 TotalLostPackets 1552
scalar PriorityV2VAttackRSU.node[8].nic.mac1609_4 DroppedPacketsInMac 0
scalar PriorityV2VAttackRSU.node[8].nic.mac1609_4 TooLittleTime 0
scalar PriorityV2VAttackRSU.node[8].nic.mac1609_4 TimesIntoBackoff 183
scalar PriorityV2VAttackRSU.node[8].nic.mac1609_4 SlotsBackoff 274
scalar PriorityV2VAttackRSU.node[8].nic.mac1609_4 NumInternalContention 0
scalar PriorityV2VAttackRSU.node[8].nic.mac1609_4 totalBusyTime 7.805112
scalar PriorityV2VAttackRSU.node[8].nic.mac1609_4 NodeDownCount 0
scalar PriorityV2VAttackRSU.node[8].nic.mac1609_4 retriesExceeded:count 0
attr source org_car2x_veins_modules_mac_sigRetriesExceeded
scalar PriorityV2VAttackRSU.node[8].nic.mac1609_4 sentAcks:count 0
attr source org_car2x_veins_modules_mac_sigSentAck
scalar PriorityV2VAttackRSU.node[8].nic.mac1609_4 sentPackets:count 176
attr source org_car2x_veins_modules_mac_sigSentPacket
scalar PriorityV2VAttackRSU.node[8].nic.mac1609_4 collisions:count 0
attr source org_car2x_veins_modules_mac_sigCollision
scalar PriorityV2VAttackRSU.node[8].nic.mac1609_4 channelBusy:timeavg 0.044600639999969
attr source org_car2x_veins_modules_mac_sigChannelBusy
scalar PriorityV2VAttackRSU.node[8].veinsmobility startTime 25
scalar PriorityV2VAttackRSU.node[8].veinsmobility totalTime 175
scalar PriorityV2VAttackRSU.node[8].veinsmobility stopTime 200
scalar PriorityV2VAttackRSU.node[8].veinsmobility minSpeed 4.0410625637338
scalar PriorityV2VAttackRSU.node[8].veinsmobility maxSpeed 13.996461975116
scalar PriorityV2VAttackRSU.node[8].veinsmobility totalDistance 1665.9885987809
scalar PriorityV2VAttackRSU.node[8].veinsmobility totalCO2Emission 319.51165165937
scalar PriorityV2VAttackRSU.node[9].appl generatedWSMs 1
scalar PriorityV2VAttackRSU.node[9].appl receivedWSMs 31916
scalar PriorityV2VAttackRSU.node[9].appl generatedBSMs 172
scalar PriorityV2VAttackRSU.node[9].appl receivedBSMs 3357
scalar PriorityV2VAttackRSU.node[9].appl generatedWSAs 0
scalar PriorityV2VAttackRSU.node[9].appl receivedWSAs 0
scalar PriorityV2VAttackRSU.node[9].nic.phy80211p busyTime 0.045350465116247
scalar PriorityV2VAttackRSU.node[9].nic.mac1609_4 ReceivedUnicastPackets 0
scalar PriorityV2VAttackRSU.node[9].nic.mac1609_4 ReceivedBroadcasts 35273
scalar PriorityV2VAttackRSU.node[9].nic.mac1609_4 SentPackets 173
scalar PriorityV2VAttackRSU.node[9].nic.mac1609_4 SentAcknowledgements 0
scalar PriorityV2VAttackRSU.node[9].nic.mac1609_4 RetriesExceeded 0
scalar PriorityV2VAttackRSU.node[9].nic.mac1609_4 SNIRLostPackets 318
scalar PriorityV2VAttackRSU.node[9].nic.mac1609_4 RXTXLostPackets 1
scalar PriorityV2VAttackRSU.node[9].nic.mac1609_4 TotalLostPackets 319
scalar PriorityV2VAttackRSU.node[9].nic.mac1609_4 DroppedPacketsInMac 0
scalar PriorityV2VAttackRSU.node[9].nic.mac1609_4 TooLittleTime 0
scalar PriorityV2VAttackRSU.node[9].nic.mac1609_4 TimesIntoBackoff 176
scalar PriorityV2VAttackRSU.node[9].nic.mac1609_4 SlotsBackoff 251
scalar PriorityV2VAttackRSU.node[9].nic.mac1609_4 NumInternalContention 0
scalar PriorityV2VAttackRSU.node[9].nic.mac1609_4 totalBusyTime 7.802181
scalar PriorityV2VAttackRSU.node[9].nic.mac1609_4 NodeDownCount 0
scalar PriorityV2VAttackRSU.node[9].nic.mac1609_4 retriesExceeded:count 0
attr source org_car2x_veins_modules_mac_sigRetriesExceeded
scalar PriorityV2VAttackRSU.node[9].nic.mac1609_4 sentAcks:count 0
attr source org_car2x_veins_modules_mac_sigSentAck
scalar PriorityV2VAttackRSU.node[9].nic.mac1609_4 sentPackets:count 173
attr source org_car2x_veins_modules_mac_sigSentPacket
scalar PriorityV2VAttackRSU.node[9].nic.mac1609_4 collisions:count 0
attr source org_car2x_veins_modules_mac_sigCollision
scalar PriorityV2VAttackRSU.node[9].nic.mac1609_4 channelBusy:timeavg 0.045361517441829
attr source org_car2x_veins_modules_mac_sigChannelBusy
scalar PriorityV2VAttackRSU.node[9].veinsmobility startTime 28
scalar PriorityV2VAttackRSU.node[9].veinsmobility totalTime 172
scalar PriorityV2VAttackRSU.node[9].veinsmobility stopTime 200
scalar PriorityV2VAttackRSU.node[9].veinsmobility minSpeed 4.0414518827764
scalar PriorityV2VAttackRSU.node[9].veinsmobility maxSpeed 13.990338315354
scalar PriorityV2VAttackRSU.node[9].veinsmobility totalDistance 1660.5043389257
scalar PriorityV2VAttackRSU.node[9].veinsmobility totalCO2Emission 316.66137917927
scalar PriorityV2VAttackRSU.node[10].appl generatedWSMs 1
scalar PriorityV2VAttackRSU.node[10].appl receivedWSMs 31918
scalar PriorityV2VAttackRSU.node[10].appl generatedBSMs 169
scalar PriorityV2VAttackRSU.node[10].appl receivedBSMs 3328
scalar PriorityV2VAttackRSU.node[10].appl generatedWSAs 0
scalar PriorityV2VAttackRSU.node[10].appl receivedWSAs 0
scalar PriorityV2VAttackRSU.node[10].nic.phy80211p busyTime 0.046135337278074
scalar PriorityV2VAttackRSU.node[10].nic.mac1609_4 ReceivedUnicastPackets 0
scalar PriorityV2VAttackRSU.node[10].nic.mac1609_4 ReceivedBroadcasts 35246
scalar PriorityV2VAttackRSU.node[10].nic.mac1609_4 SentPackets 170
scalar PriorityV2VAttackRSU.node[10].nic.mac1609_4 SentAcknowledgements 0
scalar PriorityV2VAttackRSU.node[10].nic.mac1609_4 RetriesExceeded 0
scalar PriorityV2VAttackRSU.node[10].nic.mac1609_4 SNIRLostPackets 311
scalar PriorityV2VAttackRSU.node[10].nic.mac1609_4 RXTXLostPackets 0
scalar PriorityV2VAttackRSU.node[10].nic.mac1609_4 TotalLostPackets 311
scalar PriorityV2VAttackRSU.node[10].nic.mac1609_4 DroppedPacketsInMac 0
scalar PriorityV2VAttackRSU.node[10].nic.mac1609_4 TooLittleTime 0
scalar PriorityV2VAttackRSU.node[10].nic.mac1609_4 TimesIntoBackoff 178
scalar PriorityV2VAttackRSU.node[10].nic.mac1609_4 SlotsBackoff 275
scalar PriorityV2VAttackRSU.node[10].nic.mac1609_4 NumInternalContention 0
scalar PriorityV2VAttackRSU.node[10].nic.mac1609_4 totalBusyTime 7.798842
scalar PriorityV2VAttackRSU.node[10].nic.mac1609_4 NodeDownCount 0
scalar PriorityV2VAttackRSU.node[10].nic.mac1609_4 retriesExceeded:count 0
attr source org_car2x_veins_modules_mac_sigRetriesExceeded
scalar PriorityV2VAttackRSU.node[10].nic.mac1609_4 sentAcks:count 0
attr source org_car2x_veins_modules_mac_sigSentAck
scalar PriorityV2VAttackRSU.node[10].nic.mac1609_4 sentPackets:count 170
attr source org_car2x_veins_modules_mac_sigSentPacket
scalar PriorityV2VAttackRSU.node[10].nic.mac1609_4 collisions:count 0
attr source org_car2x_veins_modules_mac_sigCollision
scalar PriorityV2VAttackRSU.node[10].nic.mac1609_4 channelBusy:timeavg 0.046146994082808
attr source org_car2x_veins_modules_mac_sigChannelBusy
scalar PriorityV2VAttackRSU.node[10].veinsmobility startTime 31
scalar PriorityV2VAttackRSU.node[10].veinsmobility totalTime 169
scalar PriorityV2VAttackRSU.node[10].veinsmobility stopTime 200
scalar PriorityV2VAttackRSU.node[10].veinsmobility minSpeed 4.0921991861071
scalar PriorityV2VAttackRSU.node[10].veinsmobility maxSpeed 13.995584658093
scalar PriorityV2VAttackRSU.node[10].veinsmobility totalDistance 1650.4000319907
scalar PriorityV2VAttackRSU.node[10].veinsmobility totalCO2Emission 309.66707626505
scalar PriorityV2VAttackRSU.node[11].appl generatedWSMs 1
scalar PriorityV2VAttackRSU.node[11].appl receivedWSMs 31909
scalar PriorityV2VAttackRSU.node[11].appl generatedBSMs 166
scalar PriorityV2VAttackRSU.node[11].appl receivedBSMs 3271
scalar PriorityV2VAttackRSU.node[11].appl generatedWSAs 0
scalar PriorityV2VAttackRSU.node[11].appl receivedWSAs 0
scalar PriorityV2VAttackRSU.node[11].nic.phy80211p busyTime 0.046951084337317
scalar PriorityV2VAttackRSU.node[11].nic.mac1609_4 ReceivedUnicastPackets 0
scalar PriorityV2VAttackRSU.node[11].nic.mac1609_4 ReceivedBroadcasts 35180
scalar PriorityV2VAttackRSU.node[11].nic.mac1609_4 SentPackets 167
scalar PriorityV2VAttackRSU.node[11].nic.mac1609_4 SentAcknowledgements 0
scalar PriorityV2VAttackRSU.node[11].nic.mac1609_4 RetriesExceeded 0
scalar PriorityV2VAttackRSU.node[11].nic.mac1609_4 SNIRLostPackets 347
scalar PriorityV2VAttackRSU.node[11].nic.mac1609_4 RXTXLostPackets 0
scalar PriorityV2VAttackRSU.node[11].nic.mac1609_4 TotalLostPackets 347
scalar PriorityV2VAttackRSU.node[11].nic.mac1609_4 DroppedPacketsInMac 0
scalar PriorityV2VAttackRSU.node[11].nic.mac1609_4 TooLittleTime 0
scalar PriorityV2VAttackRSU.node[11].nic.mac1609_4 TimesIntoBackoff 174
scalar PriorityV2VAttackRSU.node[11].nic.mac1609_4 SlotsBackoff 247
scalar PriorityV2VAttackRSU.node[11].nic.mac1609_4 NumInternalContention 0
scalar PriorityV2VAttackRSU.node[11].nic.mac1609_4 totalBusyTime 7.793855
scalar PriorityV2VAttackRSU.node[11].nic.mac1609_4 NodeDownCount 0
scalar PriorityV2VAttackRSU.node[11].nic.mac1609_4 retriesExceeded:count 0
attr source org_car2x_veins_modules_mac_sigRetriesExceeded
scalar PriorityV2VAttackRSU.node[11].nic.mac1609_4 sentAcks:count 0
attr source org_car2x_veins_modules_mac_sigSentAck
scalar PriorityV2VAttackRSU.node[11].nic.mac1609_4 sentPackets:count 167
attr source org_car2x_veins_modules_mac_sigSentPacket
scalar PriorityV2VAttackRSU.node[11].nic.mac1609_4 collisions:count 0
attr source org_car2x_veins_modules_mac_sigCollision
scalar PriorityV2VAttackRSU.node[11].nic.mac1609_4 channelBusy:timeavg 0.046950933734907
attr source org_car2x_veins_modules_mac_sigChannelBusy
scalar PriorityV2VAttackRSU.node[11].veinsmobility startTime 34
scalar PriorityV2VAttackRSU.node[11].veinsmobility totalTime 166
scalar PriorityV2VAttackRSU.node[11].veinsmobility stopTime 200
scalar PriorityV2VAttackRSU.node[11].veinsmobility minSpeed 4.0902178359286
scalar PriorityV2VAttackRSU.node[11].veinsmobility maxSpeed 13.998126043116
scalar PriorityV2VAttackRSU.node[11].veinsmobility totalDistance 1639.5887698231
scalar PriorityV2VAttackRSU.node[11].veinsmobility totalCO2Emission 306.58294950467
scalar PriorityV2VAttackRSU.node[12].appl generatedWSMs 1
scalar PriorityV2VAttackRSU.node[12].appl receivedWSMs 14027
scalar PriorityV2VAttackRSU.node[12].appl generatedBSMs 163
scalar PriorityV2VAttackRSU.node[12].appl receivedBSMs 2026
scalar PriorityV2VAttackRSU.node[12].appl generatedWSAs 0
scalar PriorityV2VAttackRSU.node[12].appl receivedWSAs 0
scalar PriorityV2VAttackRSU.node[12].nic.phy80211p busyTime 0.028113914110428
scalar PriorityV2VAttackRSU.node[12].nic.mac1609_4 ReceivedUnicastPackets 0
scalar PriorityV2VAttackRSU.node[12].nic.mac1609_4 ReceivedBroadcasts 16053
scalar PriorityV2VAttackRSU.node[12].nic.mac1609_4 SentPackets 164
scalar PriorityV2VAttackRSU.node[12].nic.mac1609_4 SentAcknowledgements 0
scalar PriorityV2VAttackRSU.node[12].nic.mac1609_4 RetriesExceeded 0
scalar PriorityV2VAttackRSU.node[12].nic.mac1609_4 SNIRLostPackets 4900
scalar PriorityV2VAttackRSU.node[12].nic.mac1609_4 RXTXLostPackets 0
scalar PriorityV2VAttackRSU.node[12].nic.mac1609_4 TotalLostPackets 4900
scalar PriorityV2VAttackRSU.node[12].nic.mac1609_4 DroppedPacketsInMac 0
scalar PriorityV2VAttackRSU.node[12].nic.mac1609_4 TooLittleTime 0
scalar PriorityV2VAttackRSU.node[12].nic.mac1609_4 TimesIntoBackoff 167
scalar PriorityV2VAttackRSU.node[12].nic.mac1609_4 SlotsBackoff 263
scalar PriorityV2VAttackRSU.node[12].nic.mac1609_4 NumInternalContention 0
scalar PriorityV2VAttackRSU.node[12].nic.mac1609_4 totalBusyTime 4.590116
scalar PriorityV2VAttackRSU.node[12].nic.mac1609_4 NodeDownCount 0
scalar PriorityV2VAttackRSU.node[12].nic.mac1609_4 retriesExceeded:count 0
attr source org_car2x_veins_modules_mac_sigRetriesExceeded
scalar PriorityV2VAttackRSU.node[12].nic.mac1609_4 sentAcks:count 0
attr source org_car2x_veins_modules_mac_sigSentAck
scalar PriorityV2VAttackRSU.node[12].nic.mac1609_4 sentPackets:count 164
attr source org_car2x_veins_modules_mac_sigSentPacket
scalar PriorityV2VAttackRSU.node[12].nic.mac1609_4 collisions:count 0
attr source org_car2x_veins_modules_mac_sigCollision
scalar PriorityV2VAttackRSU.node[12].nic.mac1609_4 channelBusy:timeavg 0.028160220858894
attr source org_car2x_veins_modules_mac_sigChannelBusy
scalar PriorityV2VAttackRSU.node[12].veinsmobility startTime 37
scalar PriorityV2VAttackRSU.node[12].veinsmobility totalTime 163
scalar PriorityV2VAttackRSU.node[12].veinsmobility stopTime 200
scalar PriorityV2VAttackRSU.node[12].veinsmobility minSpeed 3.8721652445728
scalar PriorityV2VAttackRSU.node[12].veinsmobility maxSpeed 13.974055984516
scalar PriorityV2VAttackRSU.node[12].veinsmobility totalDistance 1776.3967743352
scalar PriorityV2VAttackRSU.node[12].veinsmobility totalCO2Emission 361.26154474746
scalar PriorityV2VAttackRSU.node[13].appl generatedWSMs 1
scalar PriorityV2VAttackRSU.node[13].appl receivedWSMs 12174
scalar PriorityV2VAttackRSU.node[13].appl generatedBSMs 160
scalar PriorityV2VAttackRSU.node[13].appl receivedBSMs 1602
scalar PriorityV2VAttackRSU.node[13].appl generatedWSAs 0
scalar PriorityV2VAttackRSU.node[13].appl receivedWSAs 0
scalar PriorityV2VAttackRSU.node[13].nic.phy80211p busyTime 0.025287250000001
scalar PriorityV2VAttackRSU.node[13].nic.mac1609_4 ReceivedUnicastPackets 0
scalar PriorityV2VAttackRSU.node[13].nic.mac1609_4 ReceivedBroadcasts 13776
scalar PriorityV2VAttackRSU.node[13].nic.mac1609_4 SentPackets 161
scalar PriorityV2VAttackRSU.node[13].nic.mac1609_4 SentAcknowledgements 0
scalar PriorityV2VAttackRSU.node[13].nic.mac1609_4 RetriesExceeded 0
scalar PriorityV2VAttackRSU.node[13].nic.mac1609_4 SNIRLostPackets 4645
scalar PriorityV2VAttackRSU.node[13].nic.mac1609_4 RXTXLostPackets 0
scalar PriorityV2VAttackRSU.node[13].nic.mac1609_4 TotalLostPackets 4645
scalar PriorityV2VAttackRSU.node[13].nic.mac1609_4 DroppedPacketsInMac 0
scalar PriorityV2VAttackRSU.node[13].nic.mac1609_4 TooLittleTime 0
scalar PriorityV2VAttackRSU.node[13].nic.mac1609_4 TimesIntoBackoff 166
scalar PriorityV2VAttackRSU.node[13].nic.mac1609_4 SlotsBackoff 264
scalar PriorityV2VAttackRSU.node[13].nic.mac1609_4 NumInternalContention 0
scalar PriorityV2VAttackRSU.node[13].nic.mac1609_4 totalBusyTime 4.053609
scalar PriorityV2VAttackRSU.node[13].nic.mac1609_4 NodeDownCount 0
scalar PriorityV2VAttackRSU.node[13].nic.mac1609_4 retriesExceeded:count 0
attr source org_car2x_veins_modules_mac_sigRetriesExceeded
scalar PriorityV2VAttackRSU.node[13].nic.mac1609_4 sentAcks:count 0
attr source org_car2x_veins_modules_mac_sigSentAck
scalar PriorityV2VAttackRSU.node[13].nic.mac1609_4 sentPackets:count 161
attr source org_car2x_veins_modules_mac_sigSentPacket
scalar PriorityV2VAttackRSU.node[13].nic.mac1609_4 collisions:count 0
attr source org_car2x_veins_modules_mac_sigCollision
scalar PriorityV2VAttackRSU.node[13].nic.mac1609_4 channelBusy:timeavg 0.025335056250001
attr source org_car2x_veins_modules_mac_sigChannelBusy
scalar PriorityV2VAttackRSU.node[13].veinsmobility startTime 40
scalar PriorityV2VAttackRSU.node[13].veinsmobility totalTime 160
scalar PriorityV2VAttackRSU.node[13].veinsmobility stopTime 200
scalar PriorityV2VAttackRSU.node[13].veinsmobility minSpeed 3.8893497726901
scalar PriorityV2VAttackRSU.node[13].veinsmobility maxSpeed 13.991019080686
scalar PriorityV2VAttackRSU.node[13].veinsmobility totalDistance 1785.0456848203
scalar PriorityV2VAttackRSU.node[13].veinsmobility totalCO2Emission 384.86117424096
scalar PriorityV2VAttackRSU.node[14].appl generatedWSMs 1
scalar PriorityV2VAttackRSU.node[14].appl receivedWSMs 13114
scalar PriorityV2VAttackRSU.node[14].appl generatedBSMs 157
scalar PriorityV2VAttackRSU.node[14].appl receivedBSMs 2076
scalar PriorityV2VAttackRSU.node[14].appl generatedWSAs 0
scalar PriorityV2VAttackRSU.node[14].appl receivedWSAs 0
scalar PriorityV2VAttackRSU.node[14].nic.phy80211p busyTime 0.028009222929938
scalar PriorityV2VAttackRSU.node[14].nic.mac1609_4 ReceivedUnicastPackets 0
scalar PriorityV2VAttackRSU.node[14].nic.mac1609_4 ReceivedBroadcasts 15190
scalar PriorityV2VAttackRSU.node[14].nic.mac1609_4 SentPackets 158
scalar PriorityV2VAttackRSU.node[14].nic.mac1609_4 SentAcknowledgements 0
scalar PriorityV2VAttackRSU.node[14].nic.mac1609_4 RetriesExceeded 0
scalar PriorityV2VAttackRSU.node[14].nic.mac1609_4 SNIRLostPackets 4991
scalar PriorityV2VAttackRSU.node[14].nic.mac1609_4 RXTXLostPackets 0
scalar PriorityV2VAttackRSU.node[14].nic.mac1609_4 TotalLostPackets 4991
scalar PriorityV2VAttackRSU.node[14].nic.mac1609_4 DroppedPacketsInMac 0
scalar PriorityV2VAttackRSU.node[14].nic.mac1609_4 TooLittleTime 0
scalar PriorityV2VAttackRSU.node[14].nic.mac1609_4 TimesIntoBackoff 162
scalar PriorityV2VAttackRSU.node[14].nic.mac1609_4 SlotsBackoff 258
scalar PriorityV2VAttackRSU.node[14].nic.mac1609_4 NumInternalContention 0
scalar PriorityV2VAttackRSU.node[14].nic.mac1609_4 totalBusyTime 4.405188994289
scalar PriorityV2VAttackRSU.node[14].nic.mac1609_4 NodeDownCount 0
scalar PriorityV2VAttackRSU.node[14].nic.mac1609_4 retriesExceeded:count 0
attr source org_car2x_veins_modules_mac_sigRetriesExceeded
scalar PriorityV2VAttackRSU.node[14].nic.mac1609_4 sentAcks:count 0
attr source org_car2x_veins_modules_mac_sigSentAck
scalar PriorityV2VAttackRSU.node[14].nic.mac1609_4 sentPackets:count 158
attr source org_car2x_veins_modules_mac_sigSentPacket
scalar PriorityV2VAttackRSU.node[14].nic.mac1609_4 collisions:count 0
attr source org_car2x_veins_modules_mac_sigCollision
scalar PriorityV2VAttackRSU.node[14].nic.mac1609_4 channelBusy:timeavg 0.028058528626046
attr source org_car2x_veins_modules_mac_sigChannelBusy
scalar PriorityV2VAttackRSU.node[14].veinsmobility startTime 43
scalar PriorityV2VAttackRSU.node[14].veinsmobility totalTime 157
scalar PriorityV2VAttackRSU.node[14].veinsmobility stopTime 200
scalar PriorityV2VAttackRSU.node[14].veinsmobility minSpeed 0
scalar PriorityV2VAttackRSU.node[14].veinsmobility maxSpeed 13.999792889112
scalar PriorityV2VAttackRSU.node[14].veinsmobility totalDistance 1660.3426063695
scalar PriorityV2VAttackRSU.node[14].veinsmobility totalCO2Emission 362.68465317672
scalar PriorityV2VAttackRSU.node[15].appl generatedWSMs 1
scalar PriorityV2VAttackRSU.node[15].appl receivedWSMs 6172
scalar PriorityV2VAttackRSU.node[15].appl generatedBSMs 154
scalar PriorityV2VAttackRSU.node[15].appl receivedBSMs 2127
scalar PriorityV2VAttackRSU.node[15].appl generatedWSAs 0
scalar PriorityV2VAttackRSU.node[15].appl receivedWSAs 0
scalar PriorityV2VAttackRSU.node[15].nic.phy80211p busyTime 0.017859116883117
scalar PriorityV2VAttackRSU.node[15].nic.mac1609_4 ReceivedUnicastPackets 0
scalar PriorityV2VAttackRSU.node[15].nic.mac1609_4 ReceivedBroadcasts 8299
scalar PriorityV2VAttackRSU.node[15].nic.mac1609_4 SentPackets 155
scalar PriorityV2VAttackRSU.node[15].nic.mac1609_4 SentAcknowledgements 0
scalar PriorityV2VAttackRSU.node[15].nic.mac1609_4 RetriesExceeded 0
scalar PriorityV2VAttackRSU.node[15].nic.mac1609_4 SNIRLostPackets 4785
scalar PriorityV2VAttackRSU.node[15].nic.mac1609_4 RXTXLostPackets 1
scalar PriorityV2VAttackRSU.node[15].nic.mac1609_4 TotalLostPackets 4786
scalar PriorityV2VAttackRSU.node[15].nic.mac1609_4 DroppedPacketsInMac 0
scalar PriorityV2VAttackRSU.node[15].nic.mac1609_4 TooLittleTime 0
scalar PriorityV2VAttackRSU.node[15].nic.mac1609_4 TimesIntoBackoff 158
scalar PriorityV2VAttackRSU.node[15].nic.mac1609_4 SlotsBackoff 256
scalar PriorityV2VAttackRSU.node[15].nic.mac1609_4 NumInternalContention 0
scalar PriorityV2VAttackRSU.node[15].nic.mac1609_4 totalBusyTime 2.760811
scalar PriorityV2VAttackRSU.node[15].nic.mac1609_4 NodeDownCount 0
scalar PriorityV2VAttackRSU.node[15].nic.mac1609_4 retriesExceeded:count 0
attr source org_car2x_veins_modules_mac_sigRetriesExceeded
scalar PriorityV2VAttackRSU.node[15].nic.mac1609_4 sentAcks:count 0
attr source org_car2x_veins_modules_mac_sigSentAck
scalar PriorityV2VAttackRSU.node[15].nic.mac1609_4 sentPackets:count 155
attr source org_car2x_veins_modules_mac_sigSentPacket
scalar PriorityV2VAttackRSU.node[15].nic.mac1609_4 collisions:count 0
attr source org_car2x_veins_modules_mac_sigCollision
scalar PriorityV2VAttackRSU.node[15].nic.mac1609_4 channelBusy:timeavg 0.017927344155844
attr source org_car2x_veins_modules_mac_sigChannelBusy
scalar PriorityV2VAttackRSU.node[15].veinsmobility startTime 46
scalar PriorityV2VAttackRSU.node[15].veinsmobility totalTime 154
scalar PriorityV2VAttackRSU.node[15].veinsmobility stopTime 200
scalar PriorityV2VAttackRSU.node[15].veinsmobility minSpeed 2.1298658241565
scalar PriorityV2VAttackRSU.node[15].veinsmobility maxSpeed 13.992050653524
scalar PriorityV2VAttackRSU.node[15].veinsmobility totalDistance 1632.6449607414
scalar PriorityV2VAttackRSU.node[15].veinsmobility totalCO2Emission 350.98090969097
scalar PriorityV2VAttackRSU.node[16].appl generatedWSMs 1
scalar PriorityV2VAttackRSU.node[16].appl receivedWSMs 2377
scalar PriorityV2VAttackRSU.node[16].appl generatedBSMs 151
scalar PriorityV2VAttackRSU.node[16].appl receivedBSMs 2759
scalar PriorityV2VAttackRSU.node[16].appl generatedWSAs 0
scalar PriorityV2VAttackRSU.node[16].appl receivedWSAs 0
scalar PriorityV2VAttackRSU.node[16].nic.phy80211p busyTime 0.0075526887417229
scalar PriorityV2VAttackRSU.node[16].nic.mac1609_4 ReceivedUnicastPackets 0
scalar PriorityV2VAttackRSU.node[16].nic.mac1609_4 ReceivedBroadcasts 5136
scalar PriorityV2VAttackRSU.node[16].nic.mac1609_4 SentPackets 152
scalar PriorityV2VAttackRSU.node[16].nic.mac1609_4 SentAcknowledgements 0
scalar PriorityV2VAttackRSU.node[16].nic.mac1609_4 RetriesExceeded 0
scalar PriorityV2VAttackRSU.node[16].nic.mac1609_4 SNIRLostPackets 1376
scalar PriorityV2VAttackRSU.node[16].nic.mac1609_4 RXTXLostPackets 1
scalar PriorityV2VAttackRSU.node[16].nic.mac1609_4 TotalLostPackets 1377
scalar PriorityV2VAttackRSU.node[16].nic.mac1609_4 DroppedPacketsInMac 0
scalar PriorityV2VAttackRSU.node[16].nic.mac1609_4 TooLittleTime 0
scalar PriorityV2VAttackRSU.node[16].nic.mac1609_4 TimesIntoBackoff 154
scalar PriorityV2VAttackRSU.node[16].nic.mac1609_4 SlotsBackoff 256
scalar PriorityV2VAttackRSU.node[16].nic.mac1609_4 NumInternalContention 0
scalar PriorityV2VAttackRSU.node[16].nic.mac1609_4 totalBusyTime 1.153576
scalar PriorityV2VAttackRSU.node[16].nic.mac1609_4 NodeDownCount 0
scalar PriorityV2VAttackRSU.node[16].nic.mac1609_4 retriesExceeded:count 0
attr source org_car2x_veins_modules_mac_sigRetriesExceeded
scalar PriorityV2VAttackRSU.node[16].nic.mac1609_4 sentAcks:count 0
attr source org_car2x_veins_modules_mac_sigSentAck
scalar PriorityV2VAttackRSU.node[16].nic.mac1609_4 sentPackets:count 152
attr source org_car2x_veins_modules_mac_sigSentPacket
scalar PriorityV2VAttackRSU.node[16].nic.mac1609_4 collisions:count 0
attr source org_car2x_veins_modules_mac_sigCollision
scalar PriorityV2VAttackRSU.node[16].nic.mac1609_4 channelBusy:timeavg 0.0076395761589415
attr source org_car2x_veins_modules_mac_sigChannelBusy
scalar PriorityV2VAttackRSU.node[16].veinsmobility startTime 49
scalar PriorityV2VAttackRSU.node[16].veinsmobility totalTime 151
scalar PriorityV2VAttackRSU.node[16].veinsmobility stopTime 200
scalar PriorityV2VAttackRSU.node[16].veinsmobility minSpeed 3.9289234951894
scalar PriorityV2VAttackRSU.node[16].veinsmobility maxSpeed 12.063327381323
scalar PriorityV2VAttackRSU.node[16].veinsmobility totalDistance 1160.3560554622
scalar PriorityV2VAttackRSU.node[16].veinsmobility totalCO2Emission 261.35547215721
scalar PriorityV2VAttackRSU.node[17].appl generatedWSMs 1
scalar PriorityV2VAttackRSU.node[17].appl receivedWSMs 4558
scalar PriorityV2VAttackRSU.node[17].appl generatedBSMs 148
scalar PriorityV2VAttackRSU.node[17].appl receivedBSMs 2752
scalar PriorityV2VAttackRSU.node[17].appl generatedWSAs 0
scalar PriorityV2VAttackRSU.node[17].appl receivedWSAs 0
scalar PriorityV2VAttackRSU.node[17].nic.phy80211p busyTime 0.011615027027029
scalar PriorityV2VAttackRSU.node[17].nic.mac1609_4 ReceivedUnicastPackets 0
scalar PriorityV2VAttackRSU.node[17].nic.mac1609_4 ReceivedBroadcasts 7310
scalar PriorityV2VAttackRSU.node[17].nic.mac1609_4 SentPackets 149
scalar PriorityV2VAttackRSU.node[17].nic.mac1609_4 SentAcknowledgements 0
scalar PriorityV2VAttackRSU.node[17].nic.mac1609_4 RetriesExceeded 0
scalar PriorityV2VAttackRSU.node[17].nic.mac1609_4 SNIRLostPackets 1704
scalar PriorityV2VAttackRSU.node[17].nic.mac1609_4 RXTXLostPackets 0
scalar PriorityV2VAttackRSU.node[17].nic.mac1609_4 TotalLostPackets 1704
scalar PriorityV2VAttackRSU.node[17].nic.mac1609_4 DroppedPacketsInMac 0
scalar PriorityV2VAttackRSU.node[17].nic.mac1609_4 TooLittleTime 0
scalar PriorityV2VAttackRSU.node[17].nic.mac1609_4 TimesIntoBackoff 151
scalar PriorityV2VAttackRSU.node[17].nic.mac1609_4 SlotsBackoff 242
scalar PriorityV2VAttackRSU.node[17].nic.mac1609_4 NumInternalContention 0
scalar PriorityV2VAttackRSU.node[17].nic.mac1609_4 totalBusyTime 1.730669
scalar PriorityV2VAttackRSU.node[17].nic.mac1609_4 NodeDownCount 0
scalar PriorityV2VAttackRSU.node[17].nic.mac1609_4 retriesExceeded:count 0
attr source org_car2x_veins_modules_mac_sigRetriesExceeded
scalar PriorityV2VAttackRSU.node[17].nic.mac1609_4 sentAcks:count 0
attr source org_car2x_veins_modules_mac_sigSentAck
scalar PriorityV2VAttackRSU.node[17].nic.mac1609_4 sentPackets:count 149
attr source org_car2x_veins_modules_mac_sigSentPacket
scalar PriorityV2VAttackRSU.node[17].nic.mac1609_4 collisions:count 0
attr source org_car2x_veins_modules_mac_sigCollision
scalar PriorityV2VAttackRSU.node[17].nic.mac1609_4 channelBusy:timeavg 0.011693709459462
attr source org_car2x_veins_modules_mac_sigChannelBusy
scalar PriorityV2VAttackRSU.node[17].veinsmobility startTime 52
scalar PriorityV2VAttackRSU.node[17].veinsmobility totalTime 148
scalar PriorityV2VAttackRSU.node[17].veinsmobility stopTime 200
scalar PriorityV2VAttackRSU.node[17].veinsmobility minSpeed 4.1654516040827
scalar PriorityV2VAttackRSU.node[17].veinsmobility maxSpeed 12.824866217841
scalar PriorityV2VAttackRSU.node[17].veinsmobility totalDistance 1144.7363201308
scalar PriorityV2VAttackRSU.node[17].veinsmobility totalCO2Emission 257.38956284022
scalar PriorityV2VAttackRSU.node[18].appl generatedWSMs 1
scalar PriorityV2VAttackRSU.node[18].appl receivedWSMs 5692
scalar PriorityV2VAttackRSU.node[18].appl generatedBSMs 145
scalar PriorityV2VAttackRSU.node[18].appl receivedBSMs 2757
scalar PriorityV2VAttackRSU.node[18].appl generatedWSAs 0
scalar PriorityV2VAttackRSU.node[18].appl receivedWSAs 0
scalar PriorityV2VAttackRSU.node[18].nic.phy80211p busyTime 0.019081655172412
scalar PriorityV2VAttackRSU.node[18].nic.mac1609_4 ReceivedUnicastPackets 0
scalar PriorityV2VAttackRSU.node[18].nic.mac1609_4 ReceivedBroadcasts 8449
scalar PriorityV2VAttackRSU.node[18].nic.mac1609_4 SentPackets 146
scalar PriorityV2VAttackRSU.node[18].nic.mac1609_4 SentAcknowledgements 0
scalar PriorityV2VAttackRSU.node[18].nic.mac1609_4 RetriesExceeded 0
scalar PriorityV2VAttackRSU.node[18].nic.mac1609_4 SNIRLostPackets 5082
scalar PriorityV2VAttackRSU.node[18].nic.mac1609_4 RXTXLostPackets 0
scalar PriorityV2VAttackRSU.node[18].nic.mac1609_4 TotalLostPackets 5082
scalar PriorityV2VAttackRSU.node[18].nic.mac1609_4 DroppedPacketsInMac 0
scalar PriorityV2VAttackRSU.node[18].nic.mac1609_4 TooLittleTime 0
scalar PriorityV2VAttackRSU.node[18].nic.mac1609_4 TimesIntoBackoff 150
scalar PriorityV2VAttackRSU.node[18].nic.mac1609_4 SlotsBackoff 230
scalar PriorityV2VAttackRSU.node[18].nic.mac1609_4 NumInternalContention 0
scalar PriorityV2VAttackRSU.node[18].nic.mac1609_4 totalBusyTime 2.77633
scalar PriorityV2VAttackRSU.node[18].nic.mac1609_4 NodeDownCount 0
scalar PriorityV2VAttackRSU.node[18].nic.mac1609_4 retriesExceeded:count 0
attr source org_car2x_veins_modules_mac_sigRetriesExceeded
scalar PriorityV2VAttackRSU.node[18].nic.mac1609_4 sentAcks:count 0
attr source org_car2x_veins_modules_mac_sigSentAck
scalar PriorityV2VAttackRSU.node[18].nic.mac1609_4 sentPackets:count 146
attr source org_car2x_veins_modules_mac_sigSentPacket
scalar PriorityV2VAttackRSU.node[18].nic.mac1609_4 collisions:count 0
attr source org_car2x_veins_modules_mac_sigCollision
scalar PriorityV2VAttackRSU.node[18].nic.mac1609_4 channelBusy:timeavg 0.019147103448274
attr source org_car2x_veins_modules_mac_sigChannelBusy
scalar PriorityV2VAttackRSU.node[18].veinsmobility startTime 55
scalar PriorityV2VAttackRSU.node[18].veinsmobility totalTime 145
scalar PriorityV2VAttackRSU.node[18].veinsmobility stopTime 200
scalar PriorityV2VAttackRSU.node[18].veinsmobility minSpeed 4.0059353912065
scalar PriorityV2VAttackRSU.node[18].veinsmobility maxSpeed 13.491267315593
scalar PriorityV2VAttackRSU.node[18].veinsmobility totalDistance 1130.110832402
scalar PriorityV2VAttackRSU.node[18].veinsmobility totalCO2Emission 256.04578366104
scalar PriorityV2VAttackRSU.node[20].appl generatedWSMs 1
scalar PriorityV2VAttackRSU.node[20].appl receivedWSMs 5217
scalar PriorityV2VAttackRSU.node[20].appl generatedBSMs 142
scalar PriorityV2VAttackRSU.node[20].appl receivedBSMs 2750
scalar PriorityV2VAttackRSU.node[20].appl generatedWSAs 0
scalar PriorityV2VAttackRSU.node[20].appl receivedWSAs 0
scalar PriorityV2VAttackRSU.node[20].nic.phy80211p busyTime 0.029086309859158
scalar PriorityV2VAttackRSU.node[20].nic.mac1609_4 ReceivedUnicastPackets 0
scalar PriorityV2VAttackRSU.node[20].nic.mac1609_4 ReceivedBroadcasts 7967
scalar PriorityV2VAttackRSU.node[20].nic.mac1609_4 SentPackets 143
scalar PriorityV2VAttackRSU.node[20].nic.mac1609_4 SentAcknowledgements 0
scalar PriorityV2VAttackRSU.node[20].nic.mac1609_4 RetriesExceeded 0
scalar PriorityV2VAttackRSU.node[20].nic.mac1609_4 SNIRLostPackets 11443
scalar PriorityV2VAttackRSU.node[20].nic.mac1609_4 RXTXLostPackets 1
scalar PriorityV2VAttackRSU.node[20].nic.mac1609_4 TotalLostPackets 11444
scalar PriorityV2VAttackRSU.node[20].nic.mac1609_4 DroppedPacketsInMac 0
scalar PriorityV2VAttackRSU.node[20].nic.mac1609_4 TooLittleTime 0
scalar PriorityV2VAttackRSU.node[20].nic.mac1609_4 TimesIntoBackoff 146
scalar PriorityV2VAttackRSU.node[20].nic.mac1609_4 SlotsBackoff 237
scalar PriorityV2VAttackRSU.node[20].nic.mac1609_4 NumInternalContention 0
scalar PriorityV2VAttackRSU.node[20].nic.mac1609_4 totalBusyTime 4.106167
scalar PriorityV2VAttackRSU.node[20].nic.mac1609_4 NodeDownCount 0
scalar PriorityV2VAttackRSU.node[20].nic.mac1609_4 retriesExceeded:count 0
attr source org_car2x_veins_modules_mac_sigRetriesExceeded
scalar PriorityV2VAttackRSU.node[20].nic.mac1609_4 sentAcks:count 0
attr source org_car2x_veins_modules_mac_sigSentAck
scalar PriorityV2VAttackRSU.node[20].nic.mac1609_4 sentPackets:count 143
attr source org_car2x_veins_modules_mac_sigSentPacket
scalar PriorityV2VAttackRSU.node[20].nic.mac1609_4 collisions:count 0
attr source org_car2x_veins_modules_mac_sigCollision
scalar PriorityV2VAttackRSU.node[20].nic.mac1609_4 channelBusy:timeavg 0.028916669014086
attr source org_car2x_veins_modules_mac_sigChannelBusy
scalar PriorityV2VAttackRSU.node[20].veinsmobility startTime 58
scalar PriorityV2VAttackRSU.node[20].veinsmobility totalTime 142
scalar PriorityV2VAttackRSU.node[20].veinsmobility stopTime 200
scalar PriorityV2VAttackRSU.node[20].veinsmobility minSpeed 4.1077073881151
scalar PriorityV2VAttackRSU.node[20].veinsmobility maxSpeed 13.992575319903
scalar PriorityV2VAttackRSU.node[20].veinsmobility totalDistance 1113.5911880996
scalar PriorityV2VAttackRSU.node[20].veinsmobility totalCO2Emission 257.10871032753
scalar PriorityV2VAttackRSU.node[21].appl generatedWSMs 1
scalar PriorityV2VAttackRSU.node[21].appl receivedWSMs 6183
scalar PriorityV2VAttackRSU.node[21].appl generatedBSMs 139
scalar PriorityV2VAttackRSU.node[21].appl receivedBSMs 2710
scalar PriorityV2VAttackRSU.node[21].appl generatedWSAs 0
scalar PriorityV2VAttackRSU.node[21].appl receivedWSAs 0
scalar PriorityV2VAttackRSU.node[21].nic.phy80211p busyTime 0.035272057553956
scalar PriorityV2VAttackRSU.node[21].nic.mac1609_4 ReceivedUnicastPackets 0
scalar PriorityV2VAttackRSU.node[21].nic.mac1609_4 ReceivedBroadcasts 8893
scalar PriorityV2VAttackRSU.node[21].nic.mac1609_4 SentPackets 140
scalar PriorityV2VAttackRSU.node[21].nic.mac1609_4 SentAcknowledgements 0
scalar PriorityV2VAttackRSU.node[21].nic.mac1609_4 RetriesExceeded 0
scalar PriorityV2VAttackRSU.node[21].nic.mac1609_4 SNIRLostPackets 13847
scalar PriorityV2VAttackRSU.node[21].nic.mac1609_4 RXTXLostPackets 0
scalar PriorityV2VAttackRSU.node[21].nic.mac1609_4 TotalLostPackets 13847
scalar PriorityV2VAttackRSU.node[21].nic.mac1609_4 DroppedPacketsInMac 0
scalar PriorityV2VAttackRSU.node[21].nic.mac1609_4 TooLittleTime 0
scalar PriorityV2VAttackRSU.node[21].nic.mac1609_4 TimesIntoBackoff 144
scalar PriorityV2VAttackRSU.node[21].nic.mac1609_4 SlotsBackoff 211
scalar PriorityV2VAttackRSU.node[21].nic.mac1609_4 NumInternalContention 0
scalar PriorityV2VAttackRSU.node[21].nic.mac1609_4 totalBusyTime 4.803852
scalar PriorityV2VAttackRSU.node[21].nic.mac1609_4 NodeDownCount 0
scalar PriorityV2VAttackRSU.node[21].nic.mac1609_4 retriesExceeded:count 0
attr source org_car2x_veins_modules_mac_sigRetriesExceeded
scalar PriorityV2VAttackRSU.node[21].nic.mac1609_4 sentAcks:count 0
attr source org_car2x_veins_modules_mac_sigSentAck
scalar PriorityV2VAttackRSU.node[21].nic.mac1609_4 sentPackets:count 140
attr source org_car2x_veins_modules_mac_sigSentPacket
scalar PriorityV2VAttackRSU.node[21].nic.mac1609_4 collisions:count 0
attr source org_car2x_veins_modules_mac_sigCollision
scalar PriorityV2VAttackRSU.node[21].nic.mac1609_4 channelBusy:timeavg 0.034560086330936
attr source org_car2x_veins_modules_mac_sigChannelBusy
scalar PriorityV2VAttackRSU.node[21].veinsmobility startTime 61
scalar PriorityV2VAttackRSU.node[21].veinsmobility totalTime 139
scalar PriorityV2VAttackRSU.node[21].veinsmobility stopTime 200
scalar PriorityV2VAttackRSU.node[21].veinsmobility minSpeed 3.9168212624827
scalar PriorityV2VAttackRSU.node[21].veinsmobility maxSpeed 13.992055477151
scalar PriorityV2VAttackRSU.node[21].veinsmobility totalDistance 1098.5274121294
scalar PriorityV2VAttackRSU.node[21].veinsmobility totalCO2Emission 253.01531090679
scalar PriorityV2VAttackRSU.node[22].appl generatedWSMs 1
scalar PriorityV2VAttackRSU.node[22].appl receivedWSMs 4833
scalar PriorityV2VAttackRSU.node[22].appl generatedBSMs 136
scalar PriorityV2VAttackRSU.node[22].appl receivedBSMs 2701
scalar PriorityV2VAttackRSU.node[22].appl generatedWSAs 0
scalar PriorityV2VAttackRSU.node[22].appl receivedWSAs 0
scalar PriorityV2VAttackRSU.node[22].nic.phy80211p busyTime 0.029202176470587
scalar PriorityV2VAttackRSU.node[22].nic.mac1609_4 ReceivedUnicastPackets 0
scalar PriorityV2VAttackRSU.node[22].nic.mac1609_4 ReceivedBroadcasts 7534
scalar PriorityV2VAttackRSU.node[22].nic.mac1609_4 SentPackets 137
scalar PriorityV2VAttackRSU.node[22].nic.mac1609_4 SentAcknowledgements 0
scalar PriorityV2VAttackRSU.node[22].nic.mac1609_4 RetriesExceeded 0
scalar PriorityV2VAttackRSU.node[22].nic.mac1609_4 SNIRLostPackets 11179
scalar PriorityV2VAttackRSU.node[22].nic.mac1609_4 RXTXLostPackets 0
scalar PriorityV2VAttackRSU.node[22].nic.mac1609_4 TotalLostPackets 11179
scalar PriorityV2VAttackRSU.node[22].nic.mac1609_4 DroppedPacketsInMac 0
scalar PriorityV2VAttackRSU.node[22].nic.mac1609_4 TooLittleTime 0
scalar PriorityV2VAttackRSU.node[22].nic.mac1609_4 TimesIntoBackoff 143
scalar PriorityV2VAttackRSU.node[22].nic.mac1609_4 SlotsBackoff 229
scalar PriorityV2VAttackRSU.node[22].nic.mac1609_4 NumInternalContention 0
scalar PriorityV2VAttackRSU.node[22].nic.mac1609_4 totalBusyTime 3.945041
scalar PriorityV2VAttackRSU.node[22].nic.mac1609_4 NodeDownCount 0
scalar PriorityV2VAttackRSU.node[22].nic.mac1609_4 retriesExceeded:count 0
attr source org_car2x_veins_modules_mac_sigRetriesExceeded
scalar PriorityV2VAttackRSU.node[22].nic.mac1609_4 sentAcks:count 0
attr source org_car2x_veins_modules_mac_sigSentAck
scalar PriorityV2VAttackRSU.node[22].nic.mac1609_4 sentPackets:count 137
attr source org_car2x_veins_modules_mac_sigSentPacket
scalar PriorityV2VAttackRSU.node[22].nic.mac1609_4 collisions:count 0
attr source org_car2x_veins_modules_mac_sigCollision
scalar PriorityV2VAttackRSU.node[22].nic.mac1609_4 channelBusy:timeavg 0.029007654411763
attr source org_car2x_veins_modules_mac_sigChannelBusy
scalar PriorityV2VAttackRSU.node[22].veinsmobility startTime 64
scalar PriorityV2VAttackRSU.node[22].veinsmobility totalTime 136
scalar PriorityV2VAttackRSU.node[22].veinsmobility stopTime 200
scalar PriorityV2VAttackRSU.node[22].veinsmobility minSpeed 4.0312268259559
scalar PriorityV2VAttackRSU.node[22].veinsmobility maxSpeed 13.995400461038
scalar PriorityV2VAttackRSU.node[22].veinsmobility totalDistance 1083.109925626
scalar PriorityV2VAttackRSU.node[22].veinsmobility totalCO2Emission 252.83550873225
scalar PriorityV2VAttackRSU.node[23].appl generatedWSMs 1
scalar PriorityV2VAttackRSU.node[23].appl receivedWSMs 6769
scalar PriorityV2VAttackRSU.node[23].appl generatedBSMs 133
scalar PriorityV2VAttackRSU.node[23].appl receivedBSMs 2742
scalar PriorityV2VAttackRSU.node[23].appl generatedWSAs 0
scalar PriorityV2VAttackRSU.node[23].appl receivedWSAs 0
scalar PriorityV2VAttackRSU.node[23].nic.phy80211p busyTime 0.033464060150381
scalar PriorityV2VAttackRSU.node[23].nic.mac1609_4 ReceivedUnicastPackets 0
scalar PriorityV2VAttackRSU.node[23].nic.mac1609_4 ReceivedBroadcasts 9511
scalar PriorityV2VAttackRSU.node[23].nic.mac1609_4 SentPackets 134
scalar PriorityV2VAttackRSU.node[23].nic.mac1609_4 SentAcknowledgements 0
scalar PriorityV2VAttackRSU.node[23].nic.mac1609_4 RetriesExceeded 0
scalar PriorityV2VAttackRSU.node[23].nic.mac1609_4 SNIRLostPackets 11293
scalar PriorityV2VAttackRSU.node[23].nic.mac1609_4 RXTXLostPackets 0
scalar PriorityV2VAttackRSU.node[23].nic.mac1609_4 TotalLostPackets 11293
scalar PriorityV2VAttackRSU.node[23].nic.mac1609_4 DroppedPacketsInMac 0
scalar PriorityV2VAttackRSU.node[23].nic.mac1609_4 TooLittleTime 0
scalar PriorityV2VAttackRSU.node[23].nic.mac1609_4 TimesIntoBackoff 137
scalar PriorityV2VAttackRSU.node[23].nic.mac1609_4 SlotsBackoff 208
scalar PriorityV2VAttackRSU.node[23].nic.mac1609_4 NumInternalContention 0
scalar PriorityV2VAttackRSU.node[23].nic.mac1609_4 totalBusyTime 4.453846
scalar PriorityV2VAttackRSU.node[23].nic.mac1609_4 NodeDownCount 0
scalar PriorityV2VAttackRSU.node[23].nic.mac1609_4 retriesExceeded:count 0
attr source org_car2x_veins_modules_mac_sigRetriesExceeded
scalar PriorityV2VAttackRSU.node[23].nic.mac1609_4 sentAcks:count 0
attr source org_car2x_veins_modules_mac_sigSentAck
scalar PriorityV2VAttackRSU.node[23].nic.mac1609_4 sentPackets:count 134
attr source org_car2x_veins_modules_mac_sigSentPacket
scalar PriorityV2VAttackRSU.node[23].nic.mac1609_4 collisions:count 0
attr source org_car2x_veins_modules_mac_sigCollision
scalar PriorityV2VAttackRSU.node[23].nic.mac1609_4 channelBusy:timeavg 0.03348756390978
attr source org_car2x_veins_modules_mac_sigChannelBusy
scalar PriorityV2VAttackRSU.node[23].veinsmobility startTime 67
scalar PriorityV2VAttackRSU.node[23].veinsmobility totalTime 133
scalar PriorityV2VAttackRSU.node[23].veinsmobility stopTime 200
scalar PriorityV2VAttackRSU.node[23].veinsmobility minSpeed 0
scalar PriorityV2VAttackRSU.node[23].veinsmobility maxSpeed 12.487867338249
scalar PriorityV2VAttackRSU.node[23].veinsmobility totalDistance 977.82518426857
scalar PriorityV2VAttackRSU.node[23].veinsmobility totalCO2Emission 234.99568622254
scalar PriorityV2VAttackRSU.node[24].appl generatedWSMs 1
scalar PriorityV2VAttackRSU.node[24].appl receivedWSMs 5916
scalar PriorityV2VAttackRSU.node[24].appl generatedBSMs 130
scalar PriorityV2VAttackRSU.node[24].appl receivedBSMs 2705
scalar PriorityV2VAttackRSU.node[24].appl generatedWSAs 0
scalar PriorityV2VAttackRSU.node[24].appl receivedWSAs 0
scalar PriorityV2VAttackRSU.node[24].nic.phy80211p busyTime 0.029683815384614
scalar PriorityV2VAttackRSU.node[24].nic.mac1609_4 ReceivedUnicastPackets 0
scalar PriorityV2VAttackRSU.node[24].nic.mac1609_4 ReceivedBroadcasts 8621
scalar PriorityV2VAttackRSU.node[24].nic.mac1609_4 SentPackets 131
scalar PriorityV2VAttackRSU.node[24].nic.mac1609_4 SentAcknowledgements 0
scalar PriorityV2VAttackRSU.node[24].nic.mac1609_4 RetriesExceeded 0
scalar PriorityV2VAttackRSU.node[24].nic.mac1609_4 SNIRLostPackets 9605
scalar PriorityV2VAttackRSU.node[24].nic.mac1609_4 RXTXLostPackets 0
scalar PriorityV2VAttackRSU.node[24].nic.mac1609_4 TotalLostPackets 9605
scalar PriorityV2VAttackRSU.node[24].nic.mac1609_4 DroppedPacketsInMac 0
scalar PriorityV2VAttackRSU.node[24].nic.mac1609_4 TooLittleTime 0
scalar PriorityV2VAttackRSU.node[24].nic.mac1609_4 TimesIntoBackoff 135
scalar PriorityV2VAttackRSU.node[24].nic.mac1609_4 SlotsBackoff 204
scalar PriorityV2VAttackRSU.node[24].nic.mac1609_4 NumInternalContention 0
scalar PriorityV2VAttackRSU.node[24].nic.mac1609_4 totalBusyTime 3.862771
scalar PriorityV2VAttackRSU.node[24].nic.mac1609_4 NodeDownCount 0
scalar PriorityV2VAttackRSU.node[24].nic.mac1609_4 retriesExceeded:count 0
attr source org_car2x_veins_modules_mac_sigRetriesExceeded
scalar PriorityV2VAttackRSU.node[24].nic.mac1609_4 sentAcks:count 0
attr source org_car2x_veins_modules_mac_sigSentAck
scalar PriorityV2VAttackRSU.node[24].nic.mac1609_4 sentPackets:count 131
attr source org_car2x_veins_modules_mac_sigSentPacket
scalar PriorityV2VAttackRSU.node[24].nic.mac1609_4 collisions:count 0
attr source org_car2x_veins_modules_mac_sigCollision
scalar PriorityV2VAttackRSU.node[24].nic.mac1609_4 channelBusy:timeavg 0.029713623076922
attr source org_car2x_veins_modules_mac_sigChannelBusy
scalar PriorityV2VAttackRSU.node[24].veinsmobility startTime 70
scalar PriorityV2VAttackRSU.node[24].veinsmobility totalTime 130
scalar PriorityV2VAttackRSU.node[24].veinsmobility stopTime 200
scalar PriorityV2VAttackRSU.node[24].veinsmobility minSpeed 1.5976881609833
scalar PriorityV2VAttackRSU.node[24].veinsmobility maxSpeed 13.02402445135
scalar PriorityV2VAttackRSU.node[24].veinsmobility totalDistance 965.46946318773
scalar PriorityV2VAttackRSU.node[24].veinsmobility totalCO2Emission 226.14290442108
scalar PriorityV2VAttackRSU.node[25].appl generatedWSMs 1
scalar PriorityV2VAttackRSU.node[25].appl receivedWSMs 4838
scalar PriorityV2VAttackRSU.node[25].appl generatedBSMs 127
scalar PriorityV2VAttackRSU.node[25].appl receivedBSMs 2659
scalar PriorityV2VAttackRSU.node[25].appl generatedWSAs 0
scalar PriorityV2VAttackRSU.node[25].appl receivedWSAs 0
scalar PriorityV2VAttackRSU.node[25].nic.phy80211p busyTime 0.027721259842518
scalar PriorityV2VAttackRSU.node[25].nic.mac1609_4 ReceivedUnicastPackets 0
scalar PriorityV2VAttackRSU.node[25].nic.mac1609_4 ReceivedBroadcasts 7497
scalar PriorityV2VAttackRSU.node[25].nic.mac1609_4 SentPackets 128
scalar PriorityV2VAttackRSU.node[25].nic.mac1609_4 SentAcknowledgements 0
scalar PriorityV2VAttackRSU.node[25].nic.mac1609_4 RetriesExceeded 0
scalar PriorityV2VAttackRSU.node[25].nic.mac1609_4 SNIRLostPackets 9244
scalar PriorityV2VAttackRSU.node[25].nic.mac1609_4 RXTXLostPackets 2
scalar PriorityV2VAttackRSU.node[25].nic.mac1609_4 TotalLostPackets 9246
scalar PriorityV2VAttackRSU.node[25].nic.mac1609_4 DroppedPacketsInMac 0
scalar PriorityV2VAttackRSU.node[25].nic.mac1609_4 TooLittleTime 0
scalar PriorityV2VAttackRSU.node[25].nic.mac1609_4 TimesIntoBackoff 134
scalar PriorityV2VAttackRSU.node[25].nic.mac1609_4 SlotsBackoff 210
scalar PriorityV2VAttackRSU.node[25].nic.mac1609_4 NumInternalContention 0
scalar PriorityV2VAttackRSU.node[25].nic.mac1609_4 totalBusyTime 3.525344
scalar PriorityV2VAttackRSU.node[25].nic.mac1609_4 NodeDownCount 0
scalar PriorityV2VAttackRSU.node[25].nic.mac1609_4 retriesExceeded:count 0
attr source org_car2x_veins_modules_mac_sigRetriesExceeded
scalar PriorityV2VAttackRSU.node[25].nic.mac1609_4 sentAcks:count 0
attr source org_car2x_veins_modules_mac_sigSentAck
scalar PriorityV2VAttackRSU.node[25].nic.mac1609_4 sentPackets:count 128
attr source org_car2x_veins_modules_mac_sigSentPacket
scalar PriorityV2VAttackRSU.node[25].nic.mac1609_4 collisions:count 0
attr source org_car2x_veins_modules_mac_sigCollision
scalar PriorityV2VAttackRSU.node[25].nic.mac1609_4 channelBusy:timeavg 0.027758614173227
attr source org_car2x_veins_modules_mac_sigChannelBusy
scalar PriorityV2VAttackRSU.node[25].veinsmobility startTime 73
scalar PriorityV2VAttackRSU.node[25].veinsmobility totalTime 127
scalar PriorityV2VAttackRSU.node[25].veinsmobility stopTime 200
scalar PriorityV2VAttackRSU.node[25].veinsmobility minSpeed 3.0212085004687
scalar PriorityV2VAttackRSU.node[25].veinsmobility maxSpeed 13.929229581743
scalar PriorityV2VAttackRSU.node[25].veinsmobility totalDistance 953.32278046594
scalar PriorityV2VAttackRSU.node[25].veinsmobility totalCO2Emission 221.67486881927
scalar PriorityV2VAttackRSU.node[26].appl generatedWSMs 1
scalar PriorityV2VAttackRSU.node[26].appl receivedWSMs 2119
scalar PriorityV2VAttackRSU.node[26].appl generatedBSMs 124
scalar PriorityV2VAttackRSU.node[26].appl receivedBSMs 2649
scalar PriorityV2VAttackRSU.node[26].appl generatedWSAs 0
scalar PriorityV2VAttackRSU.node[26].appl receivedWSAs 0
scalar PriorityV2VAttackRSU.node[26].nic.phy80211p busyTime 0.022165419354837
scalar PriorityV2VAttackRSU.node[26].nic.mac1609_4 ReceivedUnicastPackets 0
scalar PriorityV2VAttackRSU.node[26].nic.mac1609_4 ReceivedBroadcasts 4768
scalar PriorityV2VAttackRSU.node[26].nic.mac1609_4 SentPackets 125
scalar PriorityV2VAttackRSU.node[26].nic.mac1609_4 SentAcknowledgements 0
scalar PriorityV2VAttackRSU.node[26].nic.mac1609_4 RetriesExceeded 0
scalar PriorityV2VAttackRSU.node[26].nic.mac1609_4 SNIRLostPackets 8620
scalar PriorityV2VAttackRSU.node[26].nic.mac1609_4 RXTXLostPackets 0
scalar PriorityV2VAttackRSU.node[26].nic.mac1609_4 TotalLostPackets 8620
scalar PriorityV2VAttackRSU.node[26].nic.mac1609_4 DroppedPacketsInMac 0
scalar PriorityV2VAttackRSU.node[26].nic.mac1609_4 TooLittleTime 0
scalar PriorityV2VAttackRSU.node[26].nic.mac1609_4 TimesIntoBackoff 127
scalar PriorityV2VAttackRSU.node[26].nic.mac1609_4 SlotsBackoff 204
scalar PriorityV2VAttackRSU.node[26].nic.mac1609_4 NumInternalContention 0
scalar PriorityV2VAttackRSU.node[26].nic.mac1609_4 totalBusyTime 2.754237
scalar PriorityV2VAttackRSU.node[26].nic.mac1609_4 NodeDownCount 0
scalar PriorityV2VAttackRSU.node[26].nic.mac1609_4 retriesExceeded:count 0
attr source org_car2x_veins_modules_mac_sigRetriesExceeded
scalar PriorityV2VAttackRSU.node[26].nic.mac1609_4 sentAcks:count 0
attr source org_car2x_veins_modules_mac_sigSentAck
scalar PriorityV2VAttackRSU.node[26].nic.mac1609_4 sentPackets:count 125
attr source org_car2x_veins_modules_mac_sigSentPacket
scalar PriorityV2VAttackRSU.node[26].nic.mac1609_4 collisions:count 0
attr source org_car2x_veins_modules_mac_sigCollision
scalar PriorityV2VAttackRSU.node[26].nic.mac1609_4 channelBusy:timeavg 0.022211588709676
attr source org_car2x_veins_modules_mac_sigChannelBusy
scalar PriorityV2VAttackRSU.node[26].veinsmobility startTime 76
scalar PriorityV2VAttackRSU.node[26].veinsmobility totalTime 124
scalar PriorityV2VAttackRSU.node[26].veinsmobility stopTime 200
scalar PriorityV2VAttackRSU.node[26].veinsmobility minSpeed 4.1179416208439
scalar PriorityV2VAttackRSU.node[26].veinsmobility maxSpeed 13.573314004417
scalar PriorityV2VAttackRSU.node[26].veinsmobility totalDistance 941.69630062238
scalar PriorityV2VAttackRSU.node[26].veinsmobility totalCO2Emission 217.52739434433
scalar PriorityV2VAttackRSU.node[27].appl generatedWSMs 1
scalar PriorityV2VAttackRSU.node[27].appl receivedWSMs 127
scalar PriorityV2VAttackRSU.node[27].appl generatedBSMs 121
scalar PriorityV2VAttackRSU.node[27].appl receivedBSMs 2635
scalar PriorityV2VAttackRSU.node[27].appl generatedWSAs 0
scalar PriorityV2VAttackRSU.node[27].appl receivedWSAs 0
scalar PriorityV2VAttackRSU.node[27].nic.phy80211p busyTime 0.015911206611573
scalar PriorityV2VAttackRSU.node[27].nic.mac1609_4 ReceivedUnicastPackets 0
scalar PriorityV2VAttackRSU.node[27].nic.mac1609_4 ReceivedBroadcasts 2762
scalar PriorityV2VAttackRSU.node[27].nic.mac1609_4 SentPackets 122
scalar PriorityV2VAttackRSU.node[27].nic.mac1609_4 SentAcknowledgements 0
scalar PriorityV2VAttackRSU.node[27].nic.mac1609_4 RetriesExceeded 0
scalar PriorityV2VAttackRSU.node[27].nic.mac1609_4 SNIRLostPackets 7083
scalar PriorityV2VAttackRSU.node[27].nic.mac1609_4 RXTXLostPackets 0
scalar PriorityV2VAttackRSU.node[27].nic.mac1609_4 TotalLostPackets 7083
scalar PriorityV2VAttackRSU.node[27].nic.mac1609_4 DroppedPacketsInMac 0
scalar PriorityV2VAttackRSU.node[27].nic.mac1609_4 TooLittleTime 0
scalar PriorityV2VAttackRSU.node[27].nic.mac1609_4 TimesIntoBackoff 125
scalar PriorityV2VAttackRSU.node[27].nic.mac1609_4 SlotsBackoff 197
scalar PriorityV2VAttackRSU.node[27].nic.mac1609_4 NumInternalContention 0
scalar PriorityV2VAttackRSU.node[27].nic.mac1609_4 totalBusyTime 1.933098
scalar PriorityV2VAttackRSU.node[27].nic.mac1609_4 NodeDownCount 0
scalar PriorityV2VAttackRSU.node[27].nic.mac1609_4 retriesExceeded:count 0
attr source org_car2x_veins_modules_mac_sigRetriesExceeded
scalar PriorityV2VAttackRSU.node[27].nic.mac1609_4 sentAcks:count 0
attr source org_car2x_veins_modules_mac_sigSentAck
scalar PriorityV2VAttackRSU.node[27].nic.mac1609_4 sentPackets:count 122
attr source org_car2x_veins_modules_mac_sigSentPacket
scalar PriorityV2VAttackRSU.node[27].nic.mac1609_4 collisions:count 0
attr source org_car2x_veins_modules_mac_sigCollision
scalar PriorityV2VAttackRSU.node[27].nic.mac1609_4 channelBusy:timeavg 0.015976016528928
attr source org_car2x_veins_modules_mac_sigChannelBusy
scalar PriorityV2VAttackRSU.node[27].veinsmobility startTime 79
scalar PriorityV2VAttackRSU.node[27].veinsmobility totalTime 121
scalar PriorityV2VAttackRSU.node[27].veinsmobility stopTime 200
scalar PriorityV2VAttackRSU.node[27].veinsmobility minSpeed 0
scalar PriorityV2VAttackRSU.node[27].veinsmobility maxSpeed 13.986973312162
scalar PriorityV2VAttackRSU.node[27].veinsmobility totalDistance 862.6670721794
scalar PriorityV2VAttackRSU.node[27].veinsmobility totalCO2Emission 220.0749907762
scalar PriorityV2VAttackRSU.node[28].appl generatedWSMs 1
scalar PriorityV2VAttackRSU.node[28].appl receivedWSMs 2
scalar PriorityV2VAttackRSU.node[28].appl generatedBSMs 118
scalar PriorityV2VAttackRSU.node[28].appl receivedBSMs 2610
scalar PriorityV2VAttackRSU.node[28].appl generatedWSAs 0
scalar PriorityV2VAttackRSU.node[28].appl receivedWSAs 0
[...]
scalar PriorityV2VAttackRSU.node[60].nic.mac1609_4 TooLittleTime 0
scalar PriorityV2VAttackRSU.node[60].nic.mac1609_4 TimesIntoBackoff 22
scalar PriorityV2VAttackRSU.node[60].nic.mac1609_4 SlotsBackoff 34
scalar PriorityV2VAttackRSU.node[60].nic.mac1609_4 NumInternalContention 0
scalar PriorityV2VAttackRSU.node[60].nic.mac1609_4 totalBusyTime 0.042142
scalar PriorityV2VAttackRSU.node[60].nic.mac1609_4 NodeDownCount 0
scalar PriorityV2VAttackRSU.node[60].nic.mac1609_4 retriesExceeded:count 0
attr source org_car2x_veins_modules_mac_sigRetriesExceeded
scalar PriorityV2VAttackRSU.node[60].nic.mac1609_4 sentAcks:count 0
attr source org_car2x_veins_modules_mac_sigSentAck
scalar PriorityV2VAttackRSU.node[60].nic.mac1609_4 sentPackets:count 22
attr source org_car2x_veins_modules_mac_sigSentPacket
scalar PriorityV2VAttackRSU.node[60].nic.mac1609_4 collisions:count 0
attr source org_car2x_veins_modules_mac_sigCollision
scalar PriorityV2VAttackRSU.node[60].nic.mac1609_4 channelBusy:timeavg 0.0019155454545455
attr source org_car2x_veins_modules_mac_sigChannelBusy
scalar PriorityV2VAttackRSU.node[60].veinsmobility startTime 178
scalar PriorityV2VAttackRSU.node[60].veinsmobility totalTime 22
scalar PriorityV2VAttackRSU.node[60].veinsmobility stopTime 200
scalar PriorityV2VAttackRSU.node[60].veinsmobility minSpeed 4.2559510328259
scalar PriorityV2VAttackRSU.node[60].veinsmobility maxSpeed 11.274529961518
scalar PriorityV2VAttackRSU.node[60].veinsmobility totalDistance 222.62858463872
scalar PriorityV2VAttackRSU.node[60].veinsmobility totalCO2Emission 49.800669985961
scalar PriorityV2VAttackRSU.node[61].appl generatedWSMs 0
scalar PriorityV2VAttackRSU.node[61].appl receivedWSMs 0
scalar PriorityV2VAttackRSU.node[61].appl generatedBSMs 19
scalar PriorityV2VAttackRSU.node[61].appl receivedBSMs 308
scalar PriorityV2VAttackRSU.node[61].appl generatedWSAs 0
scalar PriorityV2VAttackRSU.node[61].appl receivedWSAs 0
scalar PriorityV2VAttackRSU.node[61].nic.phy80211p busyTime 0.0018501052631579
scalar PriorityV2VAttackRSU.node[61].nic.mac1609_4 ReceivedUnicastPackets 0
scalar PriorityV2VAttackRSU.node[61].nic.mac1609_4 ReceivedBroadcasts 308
scalar PriorityV2VAttackRSU.node[61].nic.mac1609_4 SentPackets 19
scalar PriorityV2VAttackRSU.node[61].nic.mac1609_4 SentAcknowledgements 0
scalar PriorityV2VAttackRSU.node[61].nic.mac1609_4 RetriesExceeded 0
scalar PriorityV2VAttackRSU.node[61].nic.mac1609_4 SNIRLostPackets 30
scalar PriorityV2VAttackRSU.node[61].nic.mac1609_4 RXTXLostPackets 0
scalar PriorityV2VAttackRSU.node[61].nic.mac1609_4 TotalLostPackets 30
scalar PriorityV2VAttackRSU.node[61].nic.mac1609_4 DroppedPacketsInMac 0
scalar PriorityV2VAttackRSU.node[61].nic.mac1609_4 TooLittleTime 0
scalar PriorityV2VAttackRSU.node[61].nic.mac1609_4 TimesIntoBackoff 19
scalar PriorityV2VAttackRSU.node[61].nic.mac1609_4 SlotsBackoff 26
scalar PriorityV2VAttackRSU.node[61].nic.mac1609_4 NumInternalContention 0
scalar PriorityV2VAttackRSU.node[61].nic.mac1609_4 totalBusyTime 0.037147
scalar PriorityV2VAttackRSU.node[61].nic.mac1609_4 NodeDownCount 0
scalar PriorityV2VAttackRSU.node[61].nic.mac1609_4 retriesExceeded:count 0
attr source org_car2x_veins_modules_mac_sigRetriesExceeded
scalar PriorityV2VAttackRSU.node[61].nic.mac1609_4 sentAcks:count 0
attr source org_car2x_veins_modules_mac_sigSentAck
scalar PriorityV2VAttackRSU.node[61].nic.mac1609_4 sentPackets:count 19
attr source org_car2x_veins_modules_mac_sigSentPacket
scalar PriorityV2VAttackRSU.node[61].nic.mac1609_4 collisions:count 0
attr source org_car2x_veins_modules_mac_sigCollision
scalar PriorityV2VAttackRSU.node[61].nic.mac1609_4 channelBusy:timeavg 0.0019551052631579
attr source org_car2x_veins_modules_mac_sigChannelBusy
scalar PriorityV2VAttackRSU.node[61].veinsmobility startTime 181
scalar PriorityV2VAttackRSU.node[61].veinsmobility totalTime 19
scalar PriorityV2VAttackRSU.node[61].veinsmobility stopTime 200
scalar PriorityV2VAttackRSU.node[61].veinsmobility minSpeed 3.7929458832696
scalar PriorityV2VAttackRSU.node[61].veinsmobility maxSpeed 12.866452709229
scalar PriorityV2VAttackRSU.node[61].veinsmobility totalDistance 206.49922450677
scalar PriorityV2VAttackRSU.node[61].veinsmobility totalCO2Emission 48.871204371321
scalar PriorityV2VAttackRSU.node[62].appl generatedWSMs 0
scalar PriorityV2VAttackRSU.node[62].appl receivedWSMs 0
scalar PriorityV2VAttackRSU.node[62].appl generatedBSMs 16
scalar PriorityV2VAttackRSU.node[62].appl receivedBSMs 271
scalar PriorityV2VAttackRSU.node[62].appl generatedWSAs 0
scalar PriorityV2VAttackRSU.node[62].appl receivedWSAs 0
scalar PriorityV2VAttackRSU.node[62].nic.phy80211p busyTime 0.001872
scalar PriorityV2VAttackRSU.node[62].nic.mac1609_4 ReceivedUnicastPackets 0
scalar PriorityV2VAttackRSU.node[62].nic.mac1609_4 ReceivedBroadcasts 271
scalar PriorityV2VAttackRSU.node[62].nic.mac1609_4 SentPackets 16
scalar PriorityV2VAttackRSU.node[62].nic.mac1609_4 SentAcknowledgements 0
scalar PriorityV2VAttackRSU.node[62].nic.mac1609_4 RetriesExceeded 0
scalar PriorityV2VAttackRSU.node[62].nic.mac1609_4 SNIRLostPackets 17
scalar PriorityV2VAttackRSU.node[62].nic.mac1609_4 RXTXLostPackets 0
scalar PriorityV2VAttackRSU.node[62].nic.mac1609_4 TotalLostPackets 17
scalar PriorityV2VAttackRSU.node[62].nic.mac1609_4 DroppedPacketsInMac 0
scalar PriorityV2VAttackRSU.node[62].nic.mac1609_4 TooLittleTime 0
scalar PriorityV2VAttackRSU.node[62].nic.mac1609_4 TimesIntoBackoff 16
scalar PriorityV2VAttackRSU.node[62].nic.mac1609_4 SlotsBackoff 24
scalar PriorityV2VAttackRSU.node[62].nic.mac1609_4 NumInternalContention 0
scalar PriorityV2VAttackRSU.node[62].nic.mac1609_4 totalBusyTime 0.031632
scalar PriorityV2VAttackRSU.node[62].nic.mac1609_4 NodeDownCount 0
scalar PriorityV2VAttackRSU.node[62].nic.mac1609_4 retriesExceeded:count 0
attr source org_car2x_veins_modules_mac_sigRetriesExceeded
scalar PriorityV2VAttackRSU.node[62].nic.mac1609_4 sentAcks:count 0
attr source org_car2x_veins_modules_mac_sigSentAck
scalar PriorityV2VAttackRSU.node[62].nic.mac1609_4 sentPackets:count 16
attr source org_car2x_veins_modules_mac_sigSentPacket
scalar PriorityV2VAttackRSU.node[62].nic.mac1609_4 collisions:count 0
attr source org_car2x_veins_modules_mac_sigCollision
scalar PriorityV2VAttackRSU.node[62].nic.mac1609_4 channelBusy:timeavg 0.001977
attr source org_car2x_veins_modules_mac_sigChannelBusy
scalar PriorityV2VAttackRSU.node[62].veinsmobility startTime 184
scalar PriorityV2VAttackRSU.node[62].veinsmobility totalTime 16
scalar PriorityV2VAttackRSU.node[62].veinsmobility stopTime 200
scalar PriorityV2VAttackRSU.node[62].veinsmobility minSpeed 3.9643027338979
scalar PriorityV2VAttackRSU.node[62].veinsmobility maxSpeed 13.381397598181
scalar PriorityV2VAttackRSU.node[62].veinsmobility totalDistance 179.74792210259
scalar PriorityV2VAttackRSU.node[62].veinsmobility totalCO2Emission 48.902478775931
scalar PriorityV2VAttackRSU.node[63].appl generatedWSMs 0
scalar PriorityV2VAttackRSU.node[63].appl receivedWSMs 0
scalar PriorityV2VAttackRSU.node[63].appl generatedBSMs 13
scalar PriorityV2VAttackRSU.node[63].appl receivedBSMs 231
scalar PriorityV2VAttackRSU.node[63].appl generatedWSAs 0
scalar PriorityV2VAttackRSU.node[63].appl receivedWSAs 0
scalar PriorityV2VAttackRSU.node[63].nic.phy80211p busyTime 0.001976
scalar PriorityV2VAttackRSU.node[63].nic.mac1609_4 ReceivedUnicastPackets 0
scalar PriorityV2VAttackRSU.node[63].nic.mac1609_4 ReceivedBroadcasts 231
scalar PriorityV2VAttackRSU.node[63].nic.mac1609_4 SentPackets 13
scalar PriorityV2VAttackRSU.node[63].nic.mac1609_4 SentAcknowledgements 0
scalar PriorityV2VAttackRSU.node[63].nic.mac1609_4 RetriesExceeded 0
scalar PriorityV2VAttackRSU.node[63].nic.mac1609_4 SNIRLostPackets 16
scalar PriorityV2VAttackRSU.node[63].nic.mac1609_4 RXTXLostPackets 0
scalar PriorityV2VAttackRSU.node[63].nic.mac1609_4 TotalLostPackets 16
scalar PriorityV2VAttackRSU.node[63].nic.mac1609_4 DroppedPacketsInMac 0
scalar PriorityV2VAttackRSU.node[63].nic.mac1609_4 TooLittleTime 0
scalar PriorityV2VAttackRSU.node[63].nic.mac1609_4 TimesIntoBackoff 13
scalar PriorityV2VAttackRSU.node[63].nic.mac1609_4 SlotsBackoff 16
scalar PriorityV2VAttackRSU.node[63].nic.mac1609_4 NumInternalContention 0
scalar PriorityV2VAttackRSU.node[63].nic.mac1609_4 totalBusyTime 0.027053
scalar PriorityV2VAttackRSU.node[63].nic.mac1609_4 NodeDownCount 0
scalar PriorityV2VAttackRSU.node[63].nic.mac1609_4 retriesExceeded:count 0
attr source org_car2x_veins_modules_mac_sigRetriesExceeded
scalar PriorityV2VAttackRSU.node[63].nic.mac1609_4 sentAcks:count 0
attr source org_car2x_veins_modules_mac_sigSentAck
scalar PriorityV2VAttackRSU.node[63].nic.mac1609_4 sentPackets:count 13
attr source org_car2x_veins_modules_mac_sigSentPacket
scalar PriorityV2VAttackRSU.node[63].nic.mac1609_4 collisions:count 0
attr source org_car2x_veins_modules_mac_sigCollision
scalar PriorityV2VAttackRSU.node[63].nic.mac1609_4 channelBusy:timeavg 0.002081
attr source org_car2x_veins_modules_mac_sigChannelBusy
scalar PriorityV2VAttackRSU.node[63].veinsmobility startTime 187
scalar PriorityV2VAttackRSU.node[63].veinsmobility totalTime 13
scalar PriorityV2VAttackRSU.node[63].veinsmobility stopTime 200
scalar PriorityV2VAttackRSU.node[63].veinsmobility minSpeed 3.9763429005056
scalar PriorityV2VAttackRSU.node[63].veinsmobility maxSpeed 13.667736121664
scalar PriorityV2VAttackRSU.node[63].veinsmobility totalDistance 141.82781533628
scalar PriorityV2VAttackRSU.node[63].veinsmobility totalCO2Emission 45.208634133986
scalar PriorityV2VAttackRSU.node[64].appl generatedWSMs 0
scalar PriorityV2VAttackRSU.node[64].appl receivedWSMs 0
scalar PriorityV2VAttackRSU.node[64].appl generatedBSMs 10
scalar PriorityV2VAttackRSU.node[64].appl receivedBSMs 193
scalar PriorityV2VAttackRSU.node[64].appl generatedWSAs 0
scalar PriorityV2VAttackRSU.node[64].appl receivedWSAs 0
scalar PriorityV2VAttackRSU.node[64].nic.phy80211p busyTime 0.0020904
scalar PriorityV2VAttackRSU.node[64].nic.mac1609_4 ReceivedUnicastPackets 0
scalar PriorityV2VAttackRSU.node[64].nic.mac1609_4 ReceivedBroadcasts 193
scalar PriorityV2VAttackRSU.node[64].nic.mac1609_4 SentPackets 10
scalar PriorityV2VAttackRSU.node[64].nic.mac1609_4 SentAcknowledgements 0
scalar PriorityV2VAttackRSU.node[64].nic.mac1609_4 RetriesExceeded 0
scalar PriorityV2VAttackRSU.node[64].nic.mac1609_4 SNIRLostPackets 8
scalar PriorityV2VAttackRSU.node[64].nic.mac1609_4 RXTXLostPackets 0
scalar PriorityV2VAttackRSU.node[64].nic.mac1609_4 TotalLostPackets 8
scalar PriorityV2VAttackRSU.node[64].nic.mac1609_4 DroppedPacketsInMac 0
scalar PriorityV2VAttackRSU.node[64].nic.mac1609_4 TooLittleTime 0
scalar PriorityV2VAttackRSU.node[64].nic.mac1609_4 TimesIntoBackoff 10
scalar PriorityV2VAttackRSU.node[64].nic.mac1609_4 SlotsBackoff 20
scalar PriorityV2VAttackRSU.node[64].nic.mac1609_4 NumInternalContention 0
scalar PriorityV2VAttackRSU.node[64].nic.mac1609_4 totalBusyTime 0.021954
scalar PriorityV2VAttackRSU.node[64].nic.mac1609_4 NodeDownCount 0
scalar PriorityV2VAttackRSU.node[64].nic.mac1609_4 retriesExceeded:count 0
attr source org_car2x_veins_modules_mac_sigRetriesExceeded
scalar PriorityV2VAttackRSU.node[64].nic.mac1609_4 sentAcks:count 0
attr source org_car2x_veins_modules_mac_sigSentAck
scalar PriorityV2VAttackRSU.node[64].nic.mac1609_4 sentPackets:count 10
attr source org_car2x_veins_modules_mac_sigSentPacket
scalar PriorityV2VAttackRSU.node[64].nic.mac1609_4 collisions:count 0
attr source org_car2x_veins_modules_mac_sigCollision
scalar PriorityV2VAttackRSU.node[64].nic.mac1609_4 channelBusy:timeavg 0.0021954
attr source org_car2x_veins_modules_mac_sigChannelBusy
scalar PriorityV2VAttackRSU.node[64].veinsmobility startTime 190
scalar PriorityV2VAttackRSU.node[64].veinsmobility totalTime 10
scalar PriorityV2VAttackRSU.node[64].veinsmobility stopTime 200
scalar PriorityV2VAttackRSU.node[64].veinsmobility minSpeed 4.0010424112291
scalar PriorityV2VAttackRSU.node[64].veinsmobility maxSpeed 13.977768345661
scalar PriorityV2VAttackRSU.node[64].veinsmobility totalDistance 105.00141460445
scalar PriorityV2VAttackRSU.node[64].veinsmobility totalCO2Emission 40.578044894371
scalar PriorityV2VAttackRSU.node[65].appl generatedWSMs 0
scalar PriorityV2VAttackRSU.node[65].appl receivedWSMs 0
scalar PriorityV2VAttackRSU.node[65].appl generatedBSMs 7
scalar PriorityV2VAttackRSU.node[65].appl receivedBSMs 135
scalar PriorityV2VAttackRSU.node[65].appl generatedWSAs 0
scalar PriorityV2VAttackRSU.node[65].appl receivedWSAs 0
scalar PriorityV2VAttackRSU.node[65].nic.phy80211p busyTime 0.0022582857142857
scalar PriorityV2VAttackRSU.node[65].nic.mac1609_4 ReceivedUnicastPackets 0
scalar PriorityV2VAttackRSU.node[65].nic.mac1609_4 ReceivedBroadcasts 135
scalar PriorityV2VAttackRSU.node[65].nic.mac1609_4 SentPackets 7
scalar PriorityV2VAttackRSU.node[65].nic.mac1609_4 SentAcknowledgements 0
scalar PriorityV2VAttackRSU.node[65].nic.mac1609_4 RetriesExceeded 0
scalar PriorityV2VAttackRSU.node[65].nic.mac1609_4 SNIRLostPackets 17
scalar PriorityV2VAttackRSU.node[65].nic.mac1609_4 RXTXLostPackets 0
scalar PriorityV2VAttackRSU.node[65].nic.mac1609_4 TotalLostPackets 17
scalar PriorityV2VAttackRSU.node[65].nic.mac1609_4 DroppedPacketsInMac 0
scalar PriorityV2VAttackRSU.node[65].nic.mac1609_4 TooLittleTime 0
scalar PriorityV2VAttackRSU.node[65].nic.mac1609_4 TimesIntoBackoff 7
scalar PriorityV2VAttackRSU.node[65].nic.mac1609_4 SlotsBackoff 8
scalar PriorityV2VAttackRSU.node[65].nic.mac1609_4 NumInternalContention 0
scalar PriorityV2VAttackRSU.node[65].nic.mac1609_4 totalBusyTime 0.016543
scalar PriorityV2VAttackRSU.node[65].nic.mac1609_4 NodeDownCount 0
scalar PriorityV2VAttackRSU.node[65].nic.mac1609_4 retriesExceeded:count 0
attr source org_car2x_veins_modules_mac_sigRetriesExceeded
scalar PriorityV2VAttackRSU.node[65].nic.mac1609_4 sentAcks:count 0
attr source org_car2x_veins_modules_mac_sigSentAck
scalar PriorityV2VAttackRSU.node[65].nic.mac1609_4 sentPackets:count 7
attr source org_car2x_veins_modules_mac_sigSentPacket
scalar PriorityV2VAttackRSU.node[65].nic.mac1609_4 collisions:count 0
attr source org_car2x_veins_modules_mac_sigCollision
scalar PriorityV2VAttackRSU.node[65].nic.mac1609_4 channelBusy:timeavg 0.0023632857142857
attr source org_car2x_veins_modules_mac_sigChannelBusy
scalar PriorityV2VAttackRSU.node[65].veinsmobility startTime 193
scalar PriorityV2VAttackRSU.node[65].veinsmobility totalTime 7
scalar PriorityV2VAttackRSU.node[65].veinsmobility stopTime 200
scalar PriorityV2VAttackRSU.node[65].veinsmobility minSpeed 4.0963891555032
scalar PriorityV2VAttackRSU.node[65].veinsmobility maxSpeed 13.89932602556
scalar PriorityV2VAttackRSU.node[65].veinsmobility totalDistance 62.429312282623
scalar PriorityV2VAttackRSU.node[65].veinsmobility totalCO2Emission 33.963789179338
scalar PriorityV2VAttackRSU.node[66].appl generatedWSMs 0
scalar PriorityV2VAttackRSU.node[66].appl receivedWSMs 0
scalar PriorityV2VAttackRSU.node[66].appl generatedBSMs 4
scalar PriorityV2VAttackRSU.node[66].appl receivedBSMs 75
scalar PriorityV2VAttackRSU.node[66].appl generatedWSAs 0
scalar PriorityV2VAttackRSU.node[66].appl receivedWSAs 0
scalar PriorityV2VAttackRSU.node[66].nic.phy80211p busyTime 0.002366
scalar PriorityV2VAttackRSU.node[66].nic.mac1609_4 ReceivedUnicastPackets 0
scalar PriorityV2VAttackRSU.node[66].nic.mac1609_4 ReceivedBroadcasts 75
scalar PriorityV2VAttackRSU.node[66].nic.mac1609_4 SentPackets 4
scalar PriorityV2VAttackRSU.node[66].nic.mac1609_4 SentAcknowledgements 0
scalar PriorityV2VAttackRSU.node[66].nic.mac1609_4 RetriesExceeded 0
scalar PriorityV2VAttackRSU.node[66].nic.mac1609_4 SNIRLostPackets 16
scalar PriorityV2VAttackRSU.node[66].nic.mac1609_4 RXTXLostPackets 0
scalar PriorityV2VAttackRSU.node[66].nic.mac1609_4 TotalLostPackets 16
scalar PriorityV2VAttackRSU.node[66].nic.mac1609_4 DroppedPacketsInMac 0
scalar PriorityV2VAttackRSU.node[66].nic.mac1609_4 TooLittleTime 0
scalar PriorityV2VAttackRSU.node[66].nic.mac1609_4 TimesIntoBackoff 4
scalar PriorityV2VAttackRSU.node[66].nic.mac1609_4 SlotsBackoff 3
scalar PriorityV2VAttackRSU.node[66].nic.mac1609_4 NumInternalContention 0
scalar PriorityV2VAttackRSU.node[66].nic.mac1609_4 totalBusyTime 0.009884
scalar PriorityV2VAttackRSU.node[66].nic.mac1609_4 NodeDownCount 0
scalar PriorityV2VAttackRSU.node[66].nic.mac1609_4 retriesExceeded:count 0
attr source org_car2x_veins_modules_mac_sigRetriesExceeded
scalar PriorityV2VAttackRSU.node[66].nic.mac1609_4 sentAcks:count 0
attr source org_car2x_veins_modules_mac_sigSentAck
scalar PriorityV2VAttackRSU.node[66].nic.mac1609_4 sentPackets:count 4
attr source org_car2x_veins_modules_mac_sigSentPacket
scalar PriorityV2VAttackRSU.node[66].nic.mac1609_4 collisions:count 0
attr source org_car2x_veins_modules_mac_sigCollision
scalar PriorityV2VAttackRSU.node[66].nic.mac1609_4 channelBusy:timeavg 0.002471
attr source org_car2x_veins_modules_mac_sigChannelBusy
scalar PriorityV2VAttackRSU.node[66].veinsmobility startTime 196
scalar PriorityV2VAttackRSU.node[66].veinsmobility totalTime 4
scalar PriorityV2VAttackRSU.node[66].veinsmobility stopTime 200
scalar PriorityV2VAttackRSU.node[66].veinsmobility minSpeed 3.8129964193388
scalar PriorityV2VAttackRSU.node[66].veinsmobility maxSpeed 9.5155542239978
scalar PriorityV2VAttackRSU.node[66].veinsmobility totalDistance 23.170299826305
scalar PriorityV2VAttackRSU.node[66].veinsmobility totalCO2Emission 15.032761093514
scalar PriorityV2VAttackRSU.node[67].appl generatedWSMs 0
scalar PriorityV2VAttackRSU.node[67].appl receivedWSMs 0
scalar PriorityV2VAttackRSU.node[67].appl generatedBSMs 1
scalar PriorityV2VAttackRSU.node[67].appl receivedBSMs 19
scalar PriorityV2VAttackRSU.node[67].appl generatedWSAs 0
scalar PriorityV2VAttackRSU.node[67].appl receivedWSAs 0
scalar PriorityV2VAttackRSU.node[67].nic.phy80211p busyTime 0.002392
scalar PriorityV2VAttackRSU.node[67].nic.mac1609_4 ReceivedUnicastPackets 0
scalar PriorityV2VAttackRSU.node[67].nic.mac1609_4 ReceivedBroadcasts 19
scalar PriorityV2VAttackRSU.node[67].nic.mac1609_4 SentPackets 1
scalar PriorityV2VAttackRSU.node[67].nic.mac1609_4 SentAcknowledgements 0
scalar PriorityV2VAttackRSU.node[67].nic.mac1609_4 RetriesExceeded 0
scalar PriorityV2VAttackRSU.node[67].nic.mac1609_4 SNIRLostPackets 4
scalar PriorityV2VAttackRSU.node[67].nic.mac1609_4 RXTXLostPackets 0
scalar PriorityV2VAttackRSU.node[67].nic.mac1609_4 TotalLostPackets 4
scalar PriorityV2VAttackRSU.node[67].nic.mac1609_4 DroppedPacketsInMac 0
scalar PriorityV2VAttackRSU.node[67].nic.mac1609_4 TooLittleTime 0
scalar PriorityV2VAttackRSU.node[67].nic.mac1609_4 TimesIntoBackoff 1
scalar PriorityV2VAttackRSU.node[67].nic.mac1609_4 SlotsBackoff 1
scalar PriorityV2VAttackRSU.node[67].nic.mac1609_4 NumInternalContention 0
scalar PriorityV2VAttackRSU.node[67].nic.mac1609_4 totalBusyTime 0.002497
scalar PriorityV2VAttackRSU.node[67].nic.mac1609_4 NodeDownCount 0
scalar PriorityV2VAttackRSU.node[67].nic.mac1609_4 retriesExceeded:count 0
attr source org_car2x_veins_modules_mac_sigRetriesExceeded
scalar PriorityV2VAttackRSU.node[67].nic.mac1609_4 sentAcks:count 0
attr source org_car2x_veins_modules_mac_sigSentAck
scalar PriorityV2VAttackRSU.node[67].nic.mac1609_4 sentPackets:count 1
attr source org_car2x_veins_modules_mac_sigSentPacket
scalar PriorityV2VAttackRSU.node[67].nic.mac1609_4 collisions:count 0
attr source org_car2x_veins_modules_mac_sigCollision
scalar PriorityV2VAttackRSU.node[67].nic.mac1609_4 channelBusy:timeavg 0.002497
attr source org_car2x_veins_modules_mac_sigChannelBusy
scalar PriorityV2VAttackRSU.node[67].veinsmobility startTime 199
scalar PriorityV2VAttackRSU.node[67].veinsmobility totalTime 1
scalar PriorityV2VAttackRSU.node[67].veinsmobility stopTime 200
scalar PriorityV2VAttackRSU.node[67].veinsmobility minSpeed 4.0133306786479
scalar PriorityV2VAttackRSU.node[67].veinsmobility maxSpeed 4.0133306786479
scalar PriorityV2VAttackRSU.node[67].veinsmobility totalDistance 3.1013316946711
scalar PriorityV2VAttackRSU.node[67].veinsmobility totalCO2Emission 0

