version 3
run Default-0-20230408-17:43:30-12003
attr configname Default
attr datetime 20230408-17:43:30
attr datetimef 20230408-174330
attr experiment Default
attr inifile omnetpp_base.ini
attr iterationvars ""
attr iterationvarsd ""
attr iterationvarsf ""
attr measurement ""
attr network BaseScenario
attr processid 12003
attr repetition 0
attr replication #0
attr resultdir results
attr runnumber 0
attr seedset 0
config image-path ../../../images
config cmdenv-express-mode true
config cmdenv-autoflush true
config cmdenv-status-frequency 1s
config **.cmdenv-log-level info
config image-path ../../images
config network BaseScenario
config debug-on-errors true
config print-undisposed true
config sim-time-limit 200s
config **.scalar-recording true
config **.vector-recording true
config *.playgroundSizeX 2500m
config *.playgroundSizeY 2500m
config *.playgroundSizeZ 50m
config *.annotations.draw true
config *.obstacles.obstacles "xmldoc(\"config.xml\", \"//AnalogueModel[@type='SimpleObstacleShadowing']/obstacles\")"
config *.manager.updateInterval 1s
config *.manager.host "\"localhost\""
config *.manager.port 9999
config *.manager.autoShutdown true
config *.manager.launchConfig "xmldoc(\"erlangen.launchd.xml\")"
config *.connectionManager.sendDirect true
config *.connectionManager.maxInterfDist 2600m
config *.connectionManager.drawMaxIntfDist false
config *.**.nic.mac1609_4.useServiceChannel false
config *.**.nic.mac1609_4.txPower 20mW
config *.**.nic.mac1609_4.bitrate 6Mbps
config *.**.nic.phy80211p.minPowerLevel -110dBm
config *.**.nic.phy80211p.useNoiseFloor true
config *.**.nic.phy80211p.noiseFloor -98dBm
config *.**.nic.phy80211p.decider "xmldoc(\"config.xml\")"
config *.**.nic.phy80211p.analogueModels "xmldoc(\"config.xml\")"
config *.**.nic.phy80211p.usePropagationDelay true
config *.**.nic.phy80211p.antenna "xmldoc(\"antenna.xml\", \"/root/Antenna[@id='monopole']\")"
config *.node[*].nic.phy80211p.antennaOffsetY "0 m"
config *.node[*].nic.phy80211p.antennaOffsetZ "1.895 m"
config *.node[*].applType "\"TraCIDemo11p\""
config *.node[*].appl.headerLength "80 bit"
config *.node[*].appl.sendBeacons false
config *.node[*].appl.dataOnSch false
config *.node[*].appl.beaconInterval 1s
config *.node[*].veinsmobility.x 0
config *.node[*].veinsmobility.y 0
config *.node[*].veinsmobility.z 0
config *.node[*].veinsmobility.setHostSpeed false
config *.node[*0].veinsmobility.accidentCount 1
config *.node[*0].veinsmobility.accidentStart 73s
config *.node[*0].veinsmobility.accidentDuration 50s

vector 0 BaseScenario.node[0].veinsmobility posx ETV
vector 1 BaseScenario.node[0].veinsmobility posy ETV
vector 2 BaseScenario.node[0].veinsmobility speed ETV
vector 3 BaseScenario.node[0].veinsmobility acceleration ETV
vector 4 BaseScenario.node[0].veinsmobility co2emission ETV
vector 5 BaseScenario.node[1].veinsmobility posx ETV
vector 6 BaseScenario.node[1].veinsmobility posy ETV
vector 7 BaseScenario.node[1].veinsmobility speed ETV
vector 8 BaseScenario.node[1].veinsmobility acceleration ETV
vector 9 BaseScenario.node[1].veinsmobility co2emission ETV
vector 10 BaseScenario.node[2].veinsmobility posx ETV
vector 11 BaseScenario.node[2].veinsmobility posy ETV
vector 12 BaseScenario.node[2].veinsmobility speed ETV
vector 13 BaseScenario.node[2].veinsmobility acceleration ETV
vector 14 BaseScenario.node[2].veinsmobility co2emission ETV
vector 15 BaseScenario.node[3].veinsmobility posx ETV
vector 16 BaseScenario.node[3].veinsmobility posy ETV
vector 17 BaseScenario.node[3].veinsmobility speed ETV
vector 18 BaseScenario.node[3].veinsmobility acceleration ETV
vector 19 BaseScenario.node[3].veinsmobility co2emission ETV
vector 20 BaseScenario.node[4].veinsmobility posx ETV
vector 21 BaseScenario.node[4].veinsmobility posy ETV
vector 22 BaseScenario.node[4].veinsmobility speed ETV
vector 23 BaseScenario.node[4].veinsmobility acceleration ETV
vector 24 BaseScenario.node[4].veinsmobility co2emission ETV
0	2	1	2414.8476884116
0	3	2	2411.8243290941
0	4	3	2407.1592244543
0	5	4	2402.288200066
0	6	5	2396.1394374635
0	7	6	2388.6993875942
0	8	7	2379.889221533
0	9	8	2370.1207192459
0	10	9	2360.3141803208
0	11	10	2350.5099475634
0	12	11	2341.0010868867
0	13	12	2334.5620136983
0	14	13	2337.6803779466
0	15	14	2348.3497968862
0	16	15	2358.6961674725
0	17	16	2371.6616533546
0	18	17	2385.4706804305
0	19	18	2399.3588350668
0	20	19	2412.4541998667
0	21	20	2421.4418196582
0	22	21	2428.417609864
0	23	22	2431.468930052
0	24	23	2433.1513403206
0	25	24	2435.1237040944
0	26	25	2437.2173147583
0	27	26	2438.6437980286
0	28	27	2439.5074353185
0	29	28	2440.517813261
0	30	29	2441.5286354903
0	31	30	2442.5392864447
0	32	31	2443.5505626462
0	33	32	2444.5605657799
0	34	33	2445.5717258434
0	35	34	2446.582491601
0	36	35	2447.5926917726
0	37	36	2448.6035379785
0	38	37	2449.6150063226
0	39	38	2450.6249284665
0	40	39	2449.5871033749
0	41	40	2448.4751869324
0	42	41	2447.3627920136
0	43	42	2446.2486432664
0	44	43	2445.1356778038
0	45	44	2444.0233983273
0	46	45	2442.9080869957
0	47	46	2441.7929015198
0	48	47	2440.6792437942
0	49	48	2439.7115922048
0	50	49	2438.7697823344
0	51	50	2437.9002181099
0	52	51	2432.8633025688
0	53	52	2422.5003807434
0	54	53	2409.4108290434
0	55	54	2395.4884031613
0	56	55	2381.5627957813
0	57	56	2367.6364627138
0	58	57	2353.73063353
0	59	58	2339.8042664996
0	60	59	2325.8774774711
0	61	60	2311.9247297675
0	62	61	2298.0030235476
0	63	62	2284.0562168055
0	64	63	2270.14592889
0	65	64	2256.208384469
0	66	65	2242.3433023074
0	67	66	2228.5205362737
0	68	67	2214.7699752214
0	69	68	2201.5554575098
0	70	69	2188.332147253
0	71	70	2175.4241471705
0	72	71	2163.4134602715
0	73	72	2152.1803382802
0	74	73	2144.540951738
0	76	74	2140.779507856
0	77	75	2140.3530144126
0	78	76	2140.3530144126
0	79	77	2140.3530144126
0	80	78	2140.3530144126
0	81	79	2140.3530144126
0	82	80	2140.3530144126
0	83	81	2140.3530144126
0	84	82	2140.3530144126
0	85	83	2140.3530144126
0	86	84	2140.3530144126
0	119	85	2140.3530144126
0	120	86	2140.3530144126
0	253	87	2140.3530144126
0	254	88	2140.3530144126
0	255	89	2140.3530144126
0	256	90	2140.3530144126
0	257	91	2140.3530144126
0	258	92	2140.3530144126
0	259	93	2140.3530144126
0	260	94	2140.3530144126
0	261	95	2140.3530144126
0	262	96	2140.3530144126
0	263	97	2140.3530144126
0	264	98	2140.3530144126
0	265	99	2140.3530144126
0	266	100	2140.3530144126
0	267	101	2140.3530144126
0	268	102	2140.3530144126
0	269	103	2140.3530144126
0	270	104	2140.3530144126
0	271	105	2140.3530144126
0	272	106	2140.3530144126
0	273	107	2140.3530144126
0	274	108	2140.3530144126
0	275	109	2140.3530144126
0	276	110	2140.3530144126
0	277	111	2140.3530144126
0	278	112	2140.3530144126
0	279	113	2140.3530144126
0	280	114	2140.3530144126
0	281	115	2140.3530144126
0	282	116	2140.3530144126
0	283	117	2140.3530144126
0	284	118	2140.3530144126
0	285	119	2140.3530144126
0	286	120	2140.3530144126
0	287	121	2140.3530144126
0	288	122	2140.3530144126
0	289	123	2140.3530144126
0	291	124	2139.3259806106
0	292	125	2136.7644340486
0	293	126	2133.0671889588
0	294	127	2128.0359554561
0	295	128	2121.7010952645
0	296	129	2113.9287715381
0	297	130	2104.7952692155
0	298	131	2095.2660805231
0	299	132	2085.7290000593
0	300	133	2076.2195173849
0	301	134	2066.6868786369
0	302	135	2057.1571324103
0	303	136	2047.6139712482
0	304	137	2037.6174234357
0	305	138	2027.6238531466
0	306	139	2017.6222115319
0	307	140	2007.6346967501
0	308	141	1997.6511138786
0	309	142	1987.6640728127
0	310	143	1977.6815263082
0	311	144	1967.6974701323
0	312	145	1957.6824071168
0	313	146	1947.6830475451
0	314	147	1937.6854911664
0	315	148	1927.9645144463
0	316	149	1918.2305491482
0	317	150	1908.4949047428
0	318	151	1898.7738773903
0	319	152	1889.0379415941
0	320	153	1879.3179025225
0	321	154	1869.5876851442
0	322	155	1859.8531459298
0	323	156	1850.1228374928
0	324	157	1840.3927597777
0	325	158	1830.4305058926
0	326	159	1820.3224327952
0	327	160	1810.2156747349
0	328	161	1800.2367926501
0	329	162	1790.2798460594
0	330	163	1780.3292416671
0	331	164	1770.3884099985
0	332	165	1760.4321641396
0	333	166	1750.4683693134
0	334	167	1740.5072187741
0	335	168	1730.5544957559
0	336	169	1720.5951091925
0	337	170	1710.6487046173
0	338	171	1700.6964009453
0	339	172	1690.7414764679
0	340	173	1680.7843905634
0	341	174	1670.8525020975
0	342	175	1660.8975894016
0	343	176	1650.9321322882
0	344	177	1640.9880267436
0	345	178	1631.0420341536
0	346	179	1621.0886708631
0	347	180	1611.3048674137
0	348	181	1601.4940067594
0	349	182	1591.6717910399
0	350	183	1581.8484352229
0	351	184	1572.0276868328
0	352	185	1562.2062847314
0	353	186	1551.7828301282
0	354	187	1541.2466094682
0	355	188	1530.6947514487
0	356	189	1520.1416005319
0	357	190	1509.6085205813
0	358	191	1498.6045758997
0	359	192	1487.2020059193
0	360	193	1475.8056978242
0	361	194	1464.4239381815
0	362	195	1453.0192194185
0	363	196	1440.8685197204
0	364	197	1428.2602666151
0	365	198	1415.6218200058
0	366	199	1402.9900005625
0	367	200	1389.7382683196
1	2	1	1578.4613427464
1	3	2	1579.5715045081
1	4	3	1581.5561876604
1	5	4	1586.4898643075
1	6	5	1592.7177137369
1	7	6	1600.2534592729
1	8	7	1609.1769437566
1	9	8	1619.0710908128
1	10	9	1629.0037637418
1	11	10	1638.9341008412
1	12	11	1649.1129276818
1	13	12	1661.0453354148
1	14	13	1673.5713017788
1	15	14	1682.4825292248
1	16	15	1691.8131453674
1	17	16	1695.5671389326
1	18	17	1697.3762977775
1	19	18	1698.7149431584
1	20	19	1699.9531973498
1	21	20	1700.8030368192
1	22	21	1701.4822415169
1	23	22	1709.488976148
1	24	23	1720.5600911779
1	25	24	1733.5392477075
1	26	25	1747.3162704222
1	27	26	1761.1584832035
1	28	27	1775.0702432813
1	29	28	1788.9649324082
1	30	29	1802.8657313576
1	31	30	1816.7641749373
1	32	31	1830.6712168986
1	33	32	1844.5607516682
1	34	33	1858.4661965007
1	35	34	1872.3662188528
1	36	35	1886.2584632803
1	37	36	1900.1595919542
1	38	37	1914.0692762565
1	39	38	1927.9576972555
1	40	39	1941.831143803
1	41	40	1955.7093056208
1	42	41	1969.5934394449
1	43	42	1983.4994633254
1	44	43	1997.3907182775
1	45	44	2011.273411233
1	46	45	2025.193945677
1	47	46	2039.1129092788
1	48	47	2053.0128045725
1	49	48	2066.8985085804
1	50	49	2080.8134906758
1	51	50	2094.6788440179
1	52	51	2107.4221986122
1	53	52	2116.4228732819
1	54	53	2120.9425833616
1	55	54	2120.5038392432
1	56	55	2120.033489923
1	57	56	2119.5631160922
1	58	57	2119.0934347976
1	59	58	2118.6230598195
1	60	59	2118.1526705883
1	61	60	2117.6814045813
1	62	61	2117.2111870255
1	63	62	2116.7401216794
1	64	63	2116.2702897871
1	65	64	2115.7995372834
1	66	65	2114.7914296472
1	67	66	2112.8312545856
1	68	67	2110.6326582637
1	69	68	2106.1509091351
1	70	69	2101.6661779843
1	71	70	2096.5882387422
1	72	71	2089.5177370077
1	73	72	2082.9049754562
1	74	73	2078.407789221
1	76	74	2076.1934865983
1	77	75	2075.9424166428
1	78	76	2075.9424166428
1	79	77	2075.9424166428
1	80	78	2075.9424166428
1	81	79	2075.9424166428
1	82	80	2075.9424166428
1	83	81	2075.9424166428
1	84	82	2075.9424166428
1	85	83	2075.9424166428
1	86	84	2075.9424166428
1	119	85	2075.9424166428
1	120	86	2075.9424166428
1	253	87	2075.9424166428
1	254	88	2075.9424166428
1	255	89	2075.9424166428
1	256	90	2075.9424166428
1	257	91	2075.9424166428
1	258	92	2075.9424166428
1	259	93	2075.9424166428
1	260	94	2075.9424166428
1	261	95	2075.9424166428
1	262	96	2075.9424166428
1	263	97	2075.9424166428
1	264	98	2075.9424166428
1	265	99	2075.9424166428
1	266	100	2075.9424166428
1	267	101	2075.9424166428
1	268	102	2075.9424166428
1	269	103	2075.9424166428
1	270	104	2075.9424166428
1	271	105	2075.9424166428
1	272	106	2075.9424166428
1	273	107	2075.9424166428
1	274	108	2075.9424166428
1	275	109	2075.9424166428
1	276	110	2075.9424166428
1	277	111	2075.9424166428
1	278	112	2075.9424166428
1	279	113	2075.9424166428
1	280	114	2075.9424166428
1	281	115	2075.9424166428
1	282	116	2075.9424166428
1	283	117	2075.9424166428
1	284	118	2075.9424166428
1	285	119	2075.9424166428
1	286	120	2075.9424166428
1	287	121	2075.9424166428
1	288	122	2075.9424166428
1	289	123	2075.9424166428
1	291	124	2075.1481337715
1	292	125	2072.8914074693
1	293	126	2068.9445942044
1	294	127	2063.5737468172
1	295	128	2056.8112764833
1	296	129	2048.5143122189
1	297	130	2038.764288282
1	298	131	2028.5918687042
1	299	132	2018.4110246506
1	300	133	2008.2596412683
1	301	134	1998.0835387511
1	302	135	1987.9105240041
1	303	136	1977.7666949425
1	304	137	1968.0490615908
1	305	138	1958.3343226854
1	306	139	1948.6117376536
1	307	140	1938.9028853001
1	308	141	1929.1978551531
1	309	142	1919.4894632995
1	310	143	1909.7854406033
1	311	144	1900.0799503569
1	312	145	1890.3443183964
1	313	146	1880.6239517359
1	314	147	1870.9053379577
1	315	148	1860.9441511231
1	316	149	1850.9693653071
1	317	150	1840.9928588439
1	318	151	1831.0313310623
1	319	152	1821.0545259984
1	320	153	1811.0940109473
1	321	154	1801.1230657762
1	322	155	1791.1476918459
1	323	156	1781.1766533637
1	324	157	1771.2058513118
1	325	158	1761.4620609498
1	326	159	1751.8619682193
1	327	160	1742.2631244389
1	328	161	1732.5153449113
1	329	162	1722.7574125435
1	330	163	1713.0056956094
1	331	164	1703.2635560678
1	332	165	1693.5063104257
1	333	166	1683.7416667016
1	334	167	1673.9796144124
1	335	168	1664.2258211989
1	336	169	1654.4654976269
1	337	170	1644.7178965667
1	338	171	1634.9645143179
1	339	172	1625.2085636463
1	340	173	1615.4504947504
1	341	174	1605.7171196584
1	342	175	1595.9611805333
1	343	176	1586.1949077472
1	344	177	1576.4495597659
1	345	178	1566.7023624554
1	346	179	1556.9479417671
1	347	180	1547.1857327567
1	348	181	1537.2821223699
1	349	182	1527.3670495693
1	350	183	1517.4508258924
1	351	184	1507.5372342933
1	352	185	1497.6229828019
1	353	186	1488.3515015012
1	354	187	1479.2376139639
1	355	188	1470.1102000261
1	356	189	1460.9816677254
1	357	190	1451.8704969184
1	358	191	1443.3226162242
1	359	192	1435.2869871194
1	360	193	1427.2557708956
1	361	194	1419.2348072696
1	362	195	1411.1976638734
1	363	196	1404.4440733502
1	364	197	1398.499790187
1	365	198	1392.5412720032
1	366	199	1386.5858782614
1	367	200	1382.2107562935
2	3	2	4.1061966058897
2	4	3	6.0195495591482
2	5	4	7.7148368984793
2	6	5	9.5879868385225
2	7	6	11.391389363371
2	8	7	13.513839789145
2	9	8	13.99235115225
2	10	9	13.890224446259
2	11	10	13.976677174468
2	12	11	13.994826577434
2	13	12	13.923680325528
2	14	13	13.923542996629
2	15	14	13.91007151508
2	16	15	13.964598868005
2	17	16	13.995233640105
2	18	17	13.952304350403
2	19	18	13.956911946491
2	20	19	11.503494614513
2	21	20	7.0034946145128
2	22	21	7.8970062485022
2	23	22	10.10483181514
2	24	23	11.990706169653
2	25	24	13.981089308816
2	26	25	13.965594365916
2	27	26	13.989059597438
2	28	27	13.956378436291
2	29	28	13.910982951869
2	30	29	13.88918493646
2	31	30	13.908189346099
2	32	31	13.983992603337
2	33	32	13.890129161163
2	34	33	13.887046969056
2	35	34	13.876417213378
2	36	35	13.998502501769
2	37	36	13.934494307106
2	38	37	13.912054133965
2	39	38	13.900965631339
2	40	39	13.909685057036
2	41	40	13.973525755608
2	42	41	13.880641966569
2	43	42	13.996100211751
2	44	43	13.986372594144
2	45	44	13.897784651525
2	46	45	13.922745489741
2	47	46	13.981475095062
2	48	47	13.895750305625
2	49	48	13.884551553715
2	50	49	13.996131014933
2	51	50	13.935194088209
2	52	51	13.930097484484
2	53	52	13.948393711536
2	54	53	13.882971800906
2	55	54	13.87138918183
2	56	55	13.933780807857
2	57	56	13.942265776542
2	58	57	13.95140511482
2	59	58	13.886548467774
2	60	59	13.920721456567
2	61	60	13.906796863726
2	62	61	13.917803910668
2	63	62	13.924582225601
2	64	63	13.959688465288
2	65	64	13.957318032989
2	66	65	13.940553226951
2	67	66	13.987941900534
2	68	67	13.954308879373
2	69	68	13.923910640154
2	70	69	13.993870949601
2	71	70	13.879853877353
2	72	71	13.913362397307
2	73	72	11.339813756249
2	74	73	6.839813756249
2	76	74	2.339813756249
2	77	75	0
2	78	76	0
2	79	77	0
2	80	78	0
2	81	79	0
2	82	80	0
2	83	81	0
2	84	82	0
2	85	83	0
2	86	84	0
2	119	85	0
2	120	86	0
2	253	87	0
2	254	88	0
2	255	89	0
2	256	90	0
2	257	91	0
2	258	92	0
2	259	93	0
2	260	94	0
2	261	95	0
2	262	96	0
2	263	97	0
2	264	98	0
2	265	99	0
2	266	100	0
2	267	101	0
2	268	102	0
2	269	103	0
2	270	104	0
2	271	105	0
2	272	106	0
2	273	107	0
2	274	108	0
2	275	109	0
2	276	110	0
2	277	111	0
2	278	112	0
2	279	113	0
2	280	114	0
2	281	115	0
2	282	116	0
2	283	117	0
2	284	118	0
2	285	119	0
2	286	120	0
2	287	121	0
2	288	122	0
2	289	123	0
2	291	124	2.2219942613752
2	292	125	4.3816652589273
2	293	126	6.271098397682
2	294	127	8.1846742143464
2	295	128	10.238758130733
2	296	129	12.368734642219
2	297	130	13.962109271805
2	298	131	13.914205637665
2	299	132	13.944517719341
2	300	133	13.888510530582
2	301	134	13.984837116767
2	302	135	13.958147187203
2	303	136	13.925280719134
2	304	137	13.938511746645
2	305	138	13.963398584332
2	306	139	13.959498255225
2	307	140	13.910187145649
2	308	141	13.877548299355
2	309	142	13.972594264676
2	310	143	13.946098088557
2	311	144	13.872878628264
2	312	145	13.958444417713
2	313	146	13.970182239688
2	314	147	13.989146920117
2	315	148	13.904288685103
2	316	149	13.937143598762
2	317	150	13.917632701967
2	318	151	13.898007805019
2	319	152	13.884419017115
2	320	153	13.882232609284
2	321	154	13.941732338138
2	322	155	13.990762867138
2	323	156	13.915731141893
2	324	157	13.939586369484
2	325	158	13.899366470668
2	326	159	13.912336250036
2	327	160	13.953517861669
2	328	161	13.934401956371
2	329	162	13.957276215227
2	330	163	13.954638717885
2	331	164	13.901576737601
2	332	165	13.966789534844
2	333	166	13.949104199121
2	334	167	13.888155009383
2	335	168	13.897905882034
2	336	169	13.962132464102
2	337	170	13.901235898403
2	338	171	13.941603555495
2	339	172	13.901665229683
2	340	173	13.948864638351
2	341	174	13.903154722457
2	342	175	13.951211250776
2	343	176	13.923202529061
2	344	177	13.980554217084
2	345	178	13.913282538743
2	346	179	13.904860153806
2	347	180	13.929496678174
2	348	181	13.878089943773
2	349	182	13.938250236956
2	350	183	13.922101011877
2	351	184	13.994347229733
2	352	185	13.88718665574
2	353	186	13.88225352434
2	354	187	13.904550019328
2	355	188	13.875061885046
2	356	189	13.904536002527
2	357	190	13.891924911449
2	358	191	13.933840963931
2	359	192	13.881204627077
2	360	193	13.928633741622
2	361	194	13.913169015311
2	362	195	13.871200681212
2	363	196	13.946562061303
2	364	197	13.880639836157
2	365	198	13.967846674775
2	366	199	13.891077681468
2	367	200	13.880399412508
3	4	3	1.9133529532584
3	5	4	1.6952873393311
3	6	5	1.8731499400432
3	7	6	1.8034025248489
3	8	7	2.1224504257739
3	9	8	0.47851136310433
3	10	9	-0.1021267059911
3	11	10	0.086452728209551
3	12	11	0.018149402965792
3	13	12	-0.071146251906175
3	14	13	-0.0001373288989992
3	15	14	-0.013471481548622
3	16	15	0.054527352924923
3	17	16	0.03063477210002
3	18	17	-0.04292928970186
3	19	18	0.0046075960877356
3	20	19	-2.4534173319781
3	21	20	-4.5
3	22	21	0.8935116339894
3	23	22	2.2078255666373
3	24	23	1.8858743545134
3	25	24	1.9903831391631
3	26	25	-0.01549494290026
3	27	26	0.023465231521987
3	28	27	-0.032681161146611
3	29	28	-0.045395484422334
3	30	29	-0.021798015409148
3	31	30	0.019004409639164
3	32	31	0.075803257238585
3	33	32	-0.093863442174623
3	34	33	-0.0030821921071045
3	35	34	-0.010629755677655
3	36	35	0.12208528839052
3	37	36	-0.064008194662165
3	38	37	-0.022440173141659
3	39	38	-0.011088502625935
3	40	39	0.0087194256973451
3	41	40	0.063840698571877
3	42	41	-0.092883789038751
3	43	42	0.11545824518194
3	44	43	-0.0097276176069876
3	45	44	-0.088587942619341
3	46	45	0.024960838216357
3	47	46	0.05872960532084
3	48	47	-0.085724789437371
3	49	48	-0.011198751910124
3	50	49	0.11157946121879
3	51	50	-0.06093692672439
3	52	51	-0.0050966037251055
3	53	52	0.018296227052343
3	54	53	-0.065421910630539
3	55	54	-0.011582619075197
3	56	55	0.062391626026946
3	57	56	0.0084849686850799
3	58	57	0.0091393382777465
3	59	58	-0.064856647045817
3	60	59	0.034172988792415
3	61	60	-0.013924592840485
3	62	61	0.011007046941668
3	63	62	0.0067783149331806
3	64	63	0.035106239686721
3	65	64	-0.0023704322986315
3	66	65	-0.016764806038699
3	67	66	0.047388673583045
3	68	67	-0.033633021160494
3	69	68	-0.030398239218631
3	70	69	0.069960309446325
3	71	70	-0.11401707224781
3	72	71	0.033508519954049
3	73	72	-2.5735486410581
3	74	73	-4.5
3	76	74	-4.5
3	77	75	-2.339813756249
3	78	76	0
3	79	77	0
3	80	78	0
3	81	79	0
3	82	80	0
3	83	81	0
3	84	82	0
3	85	83	0
3	86	84	0
3	119	85	0
3	120	86	0
3	253	87	0
3	254	88	0
3	255	89	0
3	256	90	0
3	257	91	0
3	258	92	0
3	259	93	0
3	260	94	0
3	261	95	0
3	262	96	0
3	263	97	0
3	264	98	0
3	265	99	0
3	266	100	0
3	267	101	0
3	268	102	0
3	269	103	0
3	270	104	0
3	271	105	0
3	272	106	0
3	273	107	0
3	274	108	0
3	275	109	0
3	276	110	0
3	277	111	0
3	278	112	0
3	279	113	0
3	280	114	0
3	281	115	0
3	282	116	0
3	283	117	0
3	284	118	0
3	285	119	0
3	286	120	0
3	287	121	0
3	288	122	0
3	289	123	0
3	291	124	2.2219942613752
3	292	125	2.1596709975521
3	293	126	1.8894331387547
3	294	127	1.9135758166644
3	295	128	2.0540839163866
3	296	129	2.1299765114859
3	297	130	1.593374629586
3	298	131	-0.047903634139804
3	299	132	0.030312081675511
3	300	133	-0.056007188758812
3	301	134	0.096326586185024
3	302	135	-0.026689929564018
3	303	136	-0.032866468068677
3	304	137	0.013231027510482
3	305	138	0.024886837687809
3	306	139	-0.0039003291074184
3	307	140	-0.049311109576374
3	308	141	-0.032638846293558
3	309	142	0.095045965320896
3	310	143	-0.026496176118961
3	311	144	-0.073219460293187
3	312	145	0.08556578944903
3	313	146	0.011737821975258
3	314	147	0.018964680428615
3	315	148	-0.08485823501367
3	316	149	0.032854913659392
3	317	150	-0.019510896794962
3	318	151	-0.019624896948226
3	319	152	-0.013588787904009
3	320	153	-0.002186407831033
3	321	154	0.059499728854281
3	322	155	0.049030528999864
3	323	156	-0.075031725245061
3	324	157	0.023855227590538
3	325	158	-0.040219898815266
3	326	159	0.012969779367559
3	327	160	0.041181611632927
3	328	161	-0.019115905298385
3	329	162	0.022874258856755
3	330	163	-0.0026374973426577
3	331	164	-0.053061980283818
3	332	165	0.065212797243147
3	333	166	-0.017685335723217
3	334	167	-0.060949189737439
3	335	168	0.0097508726501836
3	336	169	0.064226582068949
3	337	170	-0.060896565699949
3	338	171	0.040367657092865
3	339	172	-0.039938325812109
3	340	173	0.047199408668094
3	341	174	-0.04570991589455
3	342	175	0.048056528319139
3	343	176	-0.028008721715304
3	344	177	0.057351688023191
3	345	178	-0.067271678340621
3	346	179	-0.008422384937294
3	347	180	0.024636524368542
3	348	181	-0.051406734401827
3	349	182	0.060160293183291
3	350	183	-0.016149225078989
3	351	184	0.072246217855717
3	352	185	-0.10716057399288
3	353	186	-0.0049331314000298
3	354	187	0.022296494988259
3	355	188	-0.02948813428171
3	356	189	0.029474117481151
3	357	190	-0.012611091078725
3	358	191	0.041916052482556
3	359	192	-0.052636336854194
3	360	193	0.047429114545231
3	361	194	-0.01546472631162
3	362	195	-0.041968334098348
3	363	196	0.075361380090472
3	364	197	-0.065922225145624
3	365	198	0.087206838617567
3	366	199	-0.076768993306905
3	367	200	-0.010678268959746
4	4	3	4.1962556146115
4	5	4	4.6765885426193
4	6	5	5.9822455727343
4	7	6	6.7469998477461
4	8	7	8.9023657158011
4	9	8	3.651678681686
4	10	9	1.6857621818206
4	11	10	2.3276633668785
4	12	11	2.0995306276608
4	13	12	1.7923040941768
4	14	13	2.0305681317735
4	15	14	1.9844951865828
4	16	15	2.2187318873595
4	17	16	2.1416854339172
4	18	17	1.8896148890835
4	19	18	2.0499339673421
4	20	19	0.973
4	21	20	0.973
4	22	21	3.236958348016
4	23	22	7.0694109561587
4	24	23	7.2974163894139
4	25	24	8.7433911631671
4	26	25	1.9831721788576
4	27	26	2.116835898497
4	28	27	1.9244585801898
4	29	28	1.8775583559564
4	30	29	1.9545657515643
4	31	30	2.0931646705581
4	32	31	2.2926746988581
4	33	32	1.7134162858001
4	34	33	2.0169972760905
4	35	34	1.9906840242809
4	36	35	2.4505657766328
4	37	36	1.8171929257885
4	38	37	1.9546204463715
4	39	38	1.9915808108238
4	40	39	2.0588461919453
4	41	40	2.2511263927624
4	42	41	1.7159434742786
4	43	42	2.4278953541222
4	44	43	2.0046617225539
4	45	44	1.7316915517555
4	46	45	2.1147007708653
4	47	46	2.2348405758407
4	48	47	1.74111631249
4	49	48	1.9895859601925
4	50	49	2.4148159690277
4	51	50	1.8275680369647
4	52	51	2.0145873760113
4	53	52	2.0950692067684
4	54	53	1.8080099866508
4	55	54	1.9870007069688
4	56	55	2.2415869227426
4	57	56	2.0614496349521
4	58	57	2.0646020593826
4	59	58	1.8102089718445
4	60	59	2.1453880261281
4	61	60	1.9826536733129
4	62	61	2.0673636130683
4	63	62	2.0538817544551
4	64	63	2.1528270365066
4	65	64	2.0265038417738
4	66	65	1.9764402783138
4	67	66	2.1973632197913
4	68	67	1.9210622509023
4	69	68	1.9290602067802
4	70	69	2.274161950127
4	71	70	1.645189240608
4	72	71	2.1423493623466
4	73	72	0.973
4	74	73	0.973
4	76	74	0.973
4	77	75	0.973
4	78	76	0.973
4	79	77	0.973
4	80	78	0.973
4	81	79	0.973
4	82	80	0.973
4	83	81	0.973
4	84	82	0.973
4	85	83	0.973
4	86	84	0.973
4	119	85	0.973
4	120	86	0.973
4	253	87	0.973
4	254	88	0.973
4	255	89	0.973
4	256	90	0.973
4	257	91	0.973
4	258	92	0.973
4	259	93	0.973
4	260	94	0.973
4	261	95	0.973
4	262	96	0.973
4	263	97	0.973
4	264	98	0.973
4	265	99	0.973
4	266	100	0.973
4	267	101	0.973
4	268	102	0.973
4	269	103	0.973
4	270	104	0.973
4	271	105	0.973
4	272	106	0.973
4	273	107	0.973
4	274	108	0.973
4	275	109	0.973
4	276	110	0.973
4	277	111	0.973
4	278	112	0.973
4	279	113	0.973
4	280	114	0.973
4	281	115	0.973
4	282	116	0.973
4	283	117	0.973
4	284	118	0.973
4	285	119	0.973
4	286	120	0.973
4	287	121	0.973
4	288	122	0.973
4	289	123	0.973
4	291	124	2.4080817491368
4	292	125	3.6097150181135
4	293	126	4.2908662920557
4	294	127	5.3300190940896
4	295	128	6.7716083595646
4	296	129	8.2306431470796
4	297	130	7.3964630212997
4	298	131	1.8694407969886
4	299	132	2.1350370330868
4	300	133	1.8399981216727
4	301	134	2.3619473515056
4	302	135	1.9447794491173
4	303	136	1.9209065258505
4	304	137	2.0770015547051
4	305	138	2.1188477084061
4	306	139	2.0215785559616
4	307	140	1.8643594298477
4	308	141	1.9171868899654
4	309	142	2.3560971891937
4	310	143	1.9442768873178
4	311	144	1.7810734534585
4	312	145	2.3224344914766
4	313	146	2.0753120831482
4	314	147	2.1016722528616
4	315	148	1.7447127637833
4	316	149	2.1427712566681
4	317	150	1.9649839637909
4	318	151	1.9626956939115
4	319	152	1.9815754364651
4	320	153	2.0195083413528
4	321	154	2.2328015006436
4	322	155	2.2032204841905
4	323	156	1.7785993951682
4	324	157	2.1128060522473
4	325	158	1.8938394944843
4	326	159	2.0733727375116
4	327	160	2.1725743020662
4	328	161	1.9679418022174
4	329	162	2.1114152484296
4	330	163	2.0253333410351
4	331	164	1.8510184830656
4	332	165	2.2549519305823
4	333	166	1.9741844772983
4	334	167	1.8234256639878
4	335	168	2.0610768684245
4	336	169	2.25108390819
4	337	170	1.8247407342619
4	338	171	2.1685041502679
4	339	172	1.8949945566611
4	340	173	2.1922825364507
4	341	174	1.8757932189311
4	342	175	2.195430830476
4	343	176	1.937011196681
4	344	177	2.2300905978928
4	345	178	1.8044143878569
4	346	179	2.0009012474407
4	347	180	2.1143411921556
4	348	181	1.8544662206567
4	349	182	2.234614980947
4	350	183	1.9766976166272
4	351	184	2.2819283461995
4	352	185	1.6686806007862
4	353	186	2.0103209545035
4	354	187	2.1038091592847
4	355	188	1.927489454547
4	356	189	2.1278598207652
4	357	190	1.9855874473695
4	358	191	2.1728358500974
4	359	192	1.8506306990052
4	360	193	2.1907582240088
4	361	194	1.9781171917513
4	362	195	1.8854038775798
4	363	196	2.2866769339129
4	364	197	1.8061360510748
4	365	198	2.3291141609331
4	366	199	1.7707192427041
4	367	200	1.9909162058012
5	5	4	2414.8767583254
5	6	5	2411.8725636174
5	7	6	2407.2970525089
5	8	7	2402.4626210862
5	9	8	2396.3056860371
5	10	9	2388.8743536096
5	11	10	2380.097228827
5	12	11	2370.3507264333
5	13	12	2360.5878487076
5	14	13	2350.7849318213
5	15	14	2341.2418729237
5	16	15	2334.6305580324
5	17	16	2337.3474066725
5	18	17	2348.0525301361
5	19	18	2358.4004780499
5	20	19	2371.2796394398
5	21	20	2385.0896042155
5	22	21	2398.4992320924
5	23	22	2411.2490396173
5	24	23	2420.6908975872
5	25	24	2427.6441619907
5	26	25	2431.3031061729
5	27	26	2432.9057056421
5	28	27	2434.8184284659
5	29	28	2436.9106147669
5	30	29	2438.5030871925
5	31	30	2439.3592782695
5	32	31	2440.3695357858
5	33	32	2441.3811063131
5	34	33	2442.392311243
5	35	34	2443.4030944014
5	36	35	2444.4119941562
5	37	36	2445.4232772678
5	38	37	2446.433312725
5	39	38	2447.44492721
5	40	39	2448.4555198947
5	41	40	2449.4656192663
5	42	41	2450.4762349875
5	43	42	2449.750434841
5	44	43	2448.6380657093
5	45	44	2447.5227382459
5	46	45	2446.4088016382
5	47	46	2445.2974247503
5	48	47	2444.1853869355
5	49	48	2443.0717465935
5	50	49	2441.9582168636
5	51	50	2440.843600617
5	52	51	2439.8506336287
5	53	52	2438.9089030242
5	54	53	2438.2297834947
5	55	54	2433.9001381031
5	56	55	2424.208115487
5	57	56	2411.3368038314
5	58	57	2397.4610971988
5	59	58	2383.5492311935
5	60	59	2369.6241427812
5	61	60	2355.6953302616
5	62	61	2341.7809144936
5	63	62	2327.8543534084
5	64	63	2313.9093637894
5	65	64	2299.988390115
5	66	65	2286.0731101279
5	67	66	2272.1516088395
5	68	67	2258.2363727894
5	69	68	2244.3517130112
5	70	69	2230.543060369
5	71	70	2216.736020042
5	72	71	2203.4991595604
5	73	72	2190.296200887
5	74	73	2177.193152508
5	76	74	2166.0294702944
5	77	75	2157.6348596648
5	78	76	2151.7963052773
5	79	77	2148.1638605986
5	80	78	2146.1798869465
5	81	79	2145.2505492987
5	82	80	2144.8739133769
5	83	81	2144.7380531109
5	84	82	2144.6897884525
5	85	83	2144.6723973961
5	86	84	2144.6661528173
5	119	85	2144.6639391221
5	120	86	2144.663144469
5	253	87	2144.6628599317
5	254	88	2144.6627581372
5	255	89	2144.6627216775
5	256	90	2144.6627102229
5	257	91	2144.6627093545
5	258	92	2144.6627093545
5	259	93	2144.6627093545
5	260	94	2144.6627093545
5	261	95	2144.6627093545
5	262	96	2144.6627093545
5	263	97	2144.6627093545
5	264	98	2144.6627093545
5	265	99	2144.6627093545
5	266	100	2144.6627093545
5	267	101	2144.6627093545
5	268	102	2144.6627093545
5	269	103	2144.6627093545
5	270	104	2144.6627093545
5	271	105	2144.6627093545
5	272	106	2144.6627093545
5	273	107	2144.6627093545
5	274	108	2144.6627093545
5	275	109	2144.6627093545
5	276	110	2144.6627093545
5	277	111	2144.6627093545
5	278	112	2144.6627093545
5	279	113	2144.6627093545
5	280	114	2144.6627093545
5	281	115	2144.6627093545
5	282	116	2144.6627093545
5	283	117	2144.6627093545
5	284	118	2144.6627093545
5	285	119	2144.6627093545
5	286	120	2144.6627093545
5	287	121	2144.6627093545
5	288	122	2144.6627093545
5	289	123	2144.6627093545
5	291	124	2144.3031997472
5	292	125	2142.5134705877
5	293	126	2139.1723442911
5	294	127	2134.9355046222
5	295	128	2127.1754692096
5	296	129	2120.4629552788
5	297	130	2112.3966869605
5	298	131	2103.1694004937
5	299	132	2093.6513284389
5	300	133	2084.1168443564
5	301	134	2074.6012257999
5	302	135	2065.0856542592
5	303	136	2055.5729711461
5	304	137	2046.0559557995
5	305	138	2036.0715958681
5	306	139	2026.0680879655
5	307	140	2016.079154961
5	308	141	2006.0957684985
5	309	142	1996.1075287568
5	310	143	1986.1111339079
5	311	144	1976.1289340636
5	312	145	1966.1180705841
5	313	146	1956.11073564
5	314	147	1946.1251543057
5	315	148	1936.128106251
5	316	149	1926.3748867873
5	317	150	1916.6403870564
5	318	151	1906.9107920768
5	319	152	1897.1883528096
5	320	153	1887.4601311412
5	321	154	1877.7290681654
5	322	155	1867.9953523714
5	323	156	1858.2693750935
5	324	157	1848.5389681665
5	325	158	1838.8107043477
5	326	159	1828.8913460386
5	327	160	1818.7905249053
5	328	161	1808.6786683181
5	329	162	1798.7108529634
5	330	163	1788.7509445082
5	331	164	1778.7943776497
5	332	165	1768.8376001285
5	333	166	1758.8856913771
5	334	167	1748.945064989
5	335	168	1739.014478158
5	336	169	1729.0619861244
5	337	170	1719.1142464674
5	338	171	1709.1636499448
5	339	172	1699.2179456946
5	340	173	1689.2608024528
5	341	174	1679.3109813943
5	342	175	1669.3678146037
5	343	176	1659.4184826667
5	344	177	1649.4497240317
5	345	178	1639.5128441922
5	346	179	1629.5485096574
5	347	180	1619.5869432979
5	348	181	1609.7934876867
5	349	182	1599.9960081708
5	350	183	1590.2158834195
5	351	184	1580.4246585757
5	352	185	1570.6404205973
5	353	186	1560.8618885962
5	354	187	1550.5268726653
5	355	188	1539.998628282
5	356	189	1529.4602957043
5	357	190	1518.9437428851
5	358	191	1508.4176586699
5	359	192	1497.5125716659
5	360	193	1486.1250764343
5	361	194	1474.7498708094
5	362	195	1463.3543626679
5	363	196	1451.9853304724
5	364	197	1439.939014638
5	365	198	1427.363201082
5	366	199	1414.7802336211
5	367	200	1402.2025009987
6	5	4	1578.4506684253
6	6	5	1579.5537930429
6	7	6	1581.4165868293
6	8	7	1586.3131998433
6	9	8	1592.5493268352
6	10	9	1600.0762428036
6	11	10	1608.9662610246
6	12	11	1618.8381252186
6	13	12	1628.7265753681
6	14	13	1638.6555796713
6	15	14	1648.8046840783
6	16	15	1660.6325348346
6	17	16	1673.302407451
6	18	17	1682.2144466238
6	19	18	1691.5464852396
6	20	19	1695.5100399172
6	21	20	1697.3309412031
6	22	21	1698.6336619575
6	23	22	1699.8392414004
6	24	23	1700.732032123
6	25	24	1701.2942025904
6	26	25	1708.3977707056
6	27	26	1718.9436900942
6	28	27	1731.5303788455
6	29	28	1745.2980285306
6	30	29	1759.118455573
6	31	30	1773.0327916974
6	32	31	1786.9258247288
6	33	32	1800.8369142497
6	34	33	1814.7429760862
6	35	34	1828.6432377314
6	36	35	1842.5175988656
6	37	36	1856.4247358544
6	38	37	1870.314715134
6	39	38	1884.2264091596
6	40	39	1898.1240514191
6	41	40	1912.0149096455
6	42	41	1925.9128687028
6	43	42	1939.7925549038
6	44	43	1953.6763668712
6	45	44	1967.5971026625
6	46	45	1981.5004787659
6	47	46	1995.3719062423
6	48	47	2009.2515829448
6	49	48	2023.1512612682
6	50	49	2037.0495590083
6	51	50	2050.9614178902
6	52	51	2064.8442097399
6	53	52	2078.7580207055
6	54	53	2092.6632240042
6	55	54	2105.6974625792
6	56	55	2115.3985125879
6	57	56	2120.5055712545
6	58	57	2120.5704686744
6	59	58	2120.1005834807
6	60	59	2119.6302516898
6	61	60	2119.1597941127
6	62	61	2118.6898227995
6	63	62	2118.2194412667
6	64	63	2117.7484372957
6	65	64	2117.2782444824
6	66	65	2116.8082439788
6	67	66	2116.3380333455
6	68	67	2115.8680343265
6	69	68	2115.076237808
6	70	69	2113.1180641344
6	71	70	2111.1601190995
6	72	71	2106.8101223698
6	73	72	2102.3322935291
6	74	73	2097.6296242531
6	76	74	2091.0577408029
6	77	75	2086.1159660714
6	78	76	2082.6789012915
6	79	77	2080.5405384628
6	80	78	2079.3726044996
6	81	79	2078.8255181005
6	82	80	2078.6037984798
6	83	81	2078.5238196868
6	84	82	2078.495407044
6	85	83	2078.485169204
6	86	84	2078.4814931192
6	119	85	2078.4801899521
6	120	86	2078.4797221525
6	253	87	2078.4795546494
6	254	88	2078.4794947244
6	255	89	2078.4794732612
6	256	90	2078.4794665184
6	257	91	2078.4794660071
6	258	92	2078.4794660071
6	259	93	2078.4794660071
6	260	94	2078.4794660071
6	261	95	2078.4794660071
6	262	96	2078.4794660071
6	263	97	2078.4794660071
6	264	98	2078.4794660071
6	265	99	2078.4794660071
6	266	100	2078.4794660071
6	267	101	2078.4794660071
6	268	102	2078.4794660071
6	269	103	2078.4794660071
6	270	104	2078.4794660071
6	271	105	2078.4794660071
6	272	106	2078.4794660071
6	273	107	2078.4794660071
6	274	108	2078.4794660071
6	275	109	2078.4794660071
6	276	110	2078.4794660071
6	277	111	2078.4794660071
6	278	112	2078.4794660071
6	279	113	2078.4794660071
6	280	114	2078.4794660071
6	281	115	2078.4794660071
6	282	116	2078.4794660071
6	283	117	2078.4794660071
6	284	118	2078.4794660071
6	285	119	2078.4794660071
6	286	120	2078.4794660071
6	287	121	2078.4794660071
6	288	122	2078.4794660071
6	289	123	2078.4794660071
6	291	124	2078.2678283779
6	292	125	2077.2142430805
6	293	126	2075.0254540239
6	294	127	2070.9390232628
6	295	128	2067.4787445711
6	296	129	2060.3138786182
6	297	130	2051.7040296337
6	298	131	2041.8549222304
6	299	132	2031.6954333847
6	300	133	2021.5184265142
6	301	134	2011.3615565067
6	302	135	2001.2047366826
6	303	136	1991.0509999357
6	304	137	1980.8926390084
6	305	138	1971.1493895277
6	306	139	1961.4252686789
6	307	140	1951.7153156679
6	308	141	1942.01075429
6	309	142	1932.3014751794
6	310	143	1922.5842687245
6	311	144	1912.8808608241
6	312	145	1903.1495898319
6	313	146	1893.4217488272
6	314	147	1883.7150538778
6	315	148	1873.9972124603
6	316	149	1864.0422524614
6	317	150	1854.0670857085
6	318	151	1844.0969449673
6	319	152	1834.1341368491
6	320	153	1824.1654033707
6	321	154	1814.1937583396
6	322	155	1804.2193949046
6	323	156	1794.2529613059
6	324	157	1784.2819885425
6	325	158	1774.3132118722
6	326	159	1764.5521334102
6	327	160	1754.9607835179
6	328	161	1745.3589547854
6	329	162	1735.6444991771
6	330	163	1725.8836225979
6	331	164	1716.1260208394
6	332	165	1706.3682126282
6	333	166	1696.6151758926
6	334	167	1686.8731960608
6	335	168	1677.141055163
6	336	169	1667.3874468012
6	337	170	1657.6384958476
6	338	171	1647.8867451176
6	339	172	1638.1397888968
6	340	173	1628.3816222735
6	341	174	1618.6306315111
6	342	175	1608.8861620426
6	343	176	1599.1356506282
6	344	177	1589.3661007257
6	345	178	1579.6277925745
6	346	179	1569.8625783632
6	347	180	1560.1000770107
6	348	181	1550.3521100776
6	349	182	1540.4620397501
6	350	183	1530.589488199
6	351	184	1520.7057316536
6	352	185	1510.8290280029
6	353	186	1500.9580842536
6	354	187	1491.6186227333
6	355	188	1482.5127045838
6	356	189	1473.3980611162
6	357	190	1464.3022550447
6	358	191	1455.1982052317
6	359	192	1446.5676631844
6	360	193	1438.5481557213
6	361	194	1430.5373030677
6	362	195	1422.5121526094
6	363	196	1414.5056475196
6	364	197	1407.6506073372
6	365	198	1401.721618114
6	366	199	1395.7892561127
6	367	200	1389.8593621263
7	6	5	4.0332649588119
7	7	6	5.8265110515686
7	8	7	7.7852127750962
7	9	8	9.5658873894228
7	10	9	11.450149483434
7	11	10	13.391487500134
7	12	11	13.949883621705
7	13	12	13.87602620427
7	14	13	13.885232782268
7	15	14	13.987373048679
7	16	15	13.890608048609
7	17	16	13.887004709987
7	18	17	13.926980708602
7	19	18	13.89086526999
7	20	19	13.965056618985
7	21	20	13.946692067499
7	22	21	13.096956130529
7	23	22	11.938935133475
7	24	23	7.478102635287
7	25	24	7.8590293780856
7	26	25	9.5747237887329
7	27	26	11.610744962569
7	28	27	13.581046325949
7	29	28	13.973211987913
7	30	29	13.918392209036
7	31	30	13.928662607018
7	32	31	13.985277111761
7	33	32	13.906023407809
7	34	33	13.971130909426
7	35	34	13.893635479698
7	36	35	13.92272057577
7	37	36	13.926848074025
7	38	37	13.904776060146
7	39	38	13.874779360872
7	40	39	13.911500382989
7	41	40	13.89608634992
7	42	41	13.953515601074
7	43	42	13.902247211819
7	44	43	13.875664412908
7	45	44	13.98682559514
7	46	45	13.974945872892
7	47	46	13.871210378651
7	48	47	13.884851300523
7	49	48	13.893495914964
7	50	49	13.917333146422
7	51	50	13.998359675265
7	52	51	13.883536923684
7	53	52	13.940237896459
7	54	53	13.965476403411
7	55	54	13.989670229855
7	56	55	13.951804798429
7	57	56	13.892850009208
7	58	57	13.958218119799
7	59	58	13.933717581006
7	60	59	13.982012811573
7	61	60	13.954506225567
7	62	61	13.954468280503
7	63	62	13.914126337939
7	64	63	13.998578815588
7	65	64	13.932968401979
7	66	65	13.954534002345
7	67	66	13.902721541785
7	68	67	13.925128551477
7	69	68	13.923595596936
7	70	69	13.990350087087
7	71	70	13.946136353342
7	72	71	13.880848547374
7	73	72	13.873358402713
7	74	73	13.989647400954
7	76	74	11.498589380897
7	77	75	8.3245744933417
7	78	76	5.5731123647549
7	79	77	3.219849587531
7	80	78	1.6882489662669
7	81	79	0.72037074791722
7	82	80	0.27007110267083
7	83	81	0.094970415173794
7	84	82	0.033310387862695
7	85	83	0.012453111532048
7	86	84	0.0043999744054475
7	119	85	0.0015416784712998
7	120	86	0.000568467062598
7	253	87	0.00019750313226506
7	254	88	7.2131407389898e-05
7	255	89	2.5350283398416e-05
7	256	90	0
7	257	91	0
7	258	92	0
7	259	93	0
7	260	94	0
7	261	95	0
7	262	96	0
7	263	97	0
7	264	98	0
7	265	99	0
7	266	100	0
7	267	101	0
7	268	102	0
7	269	103	0
7	270	104	0
7	271	105	0
7	272	106	0
7	273	107	0
7	274	108	0
7	275	109	0
7	276	110	0
7	277	111	0
7	278	112	0
7	279	113	0
7	280	114	0
7	281	115	0
7	282	116	0
7	283	117	0
7	284	118	0
7	285	119	0
7	286	120	0
7	287	121	0
7	288	122	0
7	289	123	0
7	291	124	1.0450265480065
7	292	125	2.9883317325304
7	293	126	4.784563909338
7	294	127	6.8202684392473
7	295	128	8.7713367269113
7	296	129	10.60170383543
7	297	130	12.633231143341
7	298	131	13.911355651631
7	299	132	13.959096302334
7	300	133	13.985669557508
7	301	134	13.912786148109
7	302	135	13.880683887878
7	303	136	13.921652116431
7	304	137	13.904044170342
7	305	138	13.928399279253
7	306	139	13.947232982973
7	307	140	13.957098587838
7	308	141	13.872669367229
7	309	142	13.988834063003
7	310	143	13.962365872057
7	311	144	13.978590016267
7	312	145	13.996544766314
7	313	146	13.909791962707
7	314	147	13.955426083545
7	315	148	13.916719595476
7	316	149	13.96472714375
7	317	150	13.96898798909
7	318	151	13.902139999291
7	319	152	13.980534003156
7	320	153	13.976162572829
7	321	154	13.902045026864
7	322	155	13.998268041729
7	323	156	13.981719435903
7	324	157	13.904254397955
7	325	158	13.91068194794
7	326	159	13.901592570813
7	327	160	13.871256113877
7	328	161	13.9870051032
7	329	162	13.963580676371
7	330	163	13.94083829636
7	331	164	13.980116114989
7	332	165	13.977826093403
7	333	166	13.954251742228
7	334	167	13.894492452065
7	335	168	13.893317757975
7	336	169	13.907786323659
7	337	170	13.910502062014
7	338	171	13.881678228341
7	339	172	13.899310339873
7	340	173	13.872349197764
7	341	174	13.895146320874
7	342	175	13.975084472168
7	343	176	13.915615806044
7	344	177	13.983601140513
7	345	178	13.901822753502
7	346	179	13.971918848483
7	347	180	13.912339184245
7	348	181	13.907727840224
7	349	182	13.9334619325
7	350	183	13.889981870283
7	351	184	13.91399841757
7	352	185	13.916351590399
7	353	186	13.926507406689
7	354	187	13.966534997355
7	355	188	13.927864136489
7	356	189	13.95199746937
7	357	190	13.978747647901
7	358	191	13.873021191314
7	359	192	13.962319403619
7	360	193	13.956997573012
7	361	194	13.887492470734
7	362	195	13.975757075921
7	363	196	13.908681957684
7	364	197	13.927898819209
7	365	198	13.967946194634
7	366	199	13.940550108349
7	367	200	13.897063943835
8	7	6	1.7932460927567
8	8	7	1.9587017235276
8	9	8	1.7806746143266
8	10	9	1.8842620940111
8	11	10	1.9413380167005
8	12	11	0.5583961215709
8	13	12	-0.073857417434921
8	14	13	0.0092065779981212
8	15	14	0.10214026641101
8	16	15	-0.096765000070445
8	17	16	-0.0036033386224883
8	18	17	0.039975998615846
8	19	18	-0.036115438612178
8	20	19	0.074191348995083
8	21	20	-0.018364551486448
8	22	21	-0.8497359369701
8	23	22	-1.158020997054
8	24	23	-4.4608324981877
8	25	24	0.38092674279862
8	26	25	1.7156944106473
8	27	26	2.0360211738362
8	28	27	1.9703013633797
8	29	28	0.39216566196388
8	30	29	-0.054819778876846
8	31	30	0.010270397982096
8	32	31	0.056614504742901
8	33	32	-0.079253703951837
8	34	33	0.065107501617168
8	35	34	-0.077495429727716
8	36	35	0.02908509607194
8	37	36	0.0041274982551123
8	38	37	-0.022072013879662
8	39	38	-0.029996699274051
8	40	39	0.036721022117417
8	41	40	-0.01541403306881
8	42	41	0.057429251153952
8	43	42	-0.051268389255274
8	44	43	-0.026582798911258
8	45	44	0.11116118223174
8	46	45	-0.011879722247832
8	47	46	-0.10373549424112
8	48	47	0.013640921872575
8	49	48	0.0086446144408541
8	50	49	0.023837231458165
8	51	50	0.081026528843214
8	52	51	-0.11482275158167
8	53	52	0.056700972774998
8	54	53	0.0252385069523
8	55	54	0.024193826443517
8	56	55	-0.037865431425162
8	57	56	-0.058954789221753
8	58	57	0.065368110591081
8	59	58	-0.024500538792926
8	60	59	0.048295230567454
8	61	60	-0.027506586005911
8	62	61	-3.7945064249811e-05
8	63	62	-0.040341942564119
8	64	63	0.08445247764932
8	65	64	-0.065610413609539
8	66	65	0.021565600365866
8	67	66	-0.051812460559885
8	68	67	0.022407009692397
8	69	68	-0.0015329545410356
8	70	69	0.066754490151069
8	71	70	-0.044213733745272
8	72	71	-0.065287805967966
8	73	72	-0.0074901446606965
8	74	73	0.11628899824107
8	76	74	-2.4910580200573
8	77	75	-3.1740148875552
8	78	76	-2.7514621285869
8	79	77	-2.3532627772239
8	80	78	-1.5316006212641
8	81	79	-0.96787821834967
8	82	80	-0.45029964524639
8	83	81	-0.17510068749704
8	84	82	-0.0616600273111
8	85	83	-0.020857276330647
8	86	84	-0.0080531371266001
8	119	85	-0.0028582959341477
8	120	86	-0.00097321140870183
8	253	87	-0.00037096393033294
8	254	88	-0.00012537172487516
8	255	89	-4.6781123991482e-05
8	256	90	-2.5350283398416e-05
8	257	91	0
8	258	92	0
8	259	93	0
8	260	94	0
8	261	95	0
8	262	96	0
8	263	97	0
8	264	98	0
8	265	99	0
8	266	100	0
8	267	101	0
8	268	102	0
8	269	103	0
8	270	104	0
8	271	105	0
8	272	106	0
8	273	107	0
8	274	108	0
8	275	109	0
8	276	110	0
8	277	111	0
8	278	112	0
8	279	113	0
8	280	114	0
8	281	115	0
8	282	116	0
8	283	117	0
8	284	118	0
8	285	119	0
8	286	120	0
8	287	121	0
8	288	122	0
8	289	123	0
8	291	124	1.0450265480065
8	292	125	1.9433051845239
8	293	126	1.7962321768076
8	294	127	2.0357045299093
8	295	128	1.951068287664
8	296	129	1.8303671085183
8	297	130	2.0315273079113
8	298	131	1.2781245082901
8	299	132	0.047740650703199
8	300	133	0.026573255173863
8	301	134	-0.072883409399074
8	302	135	-0.03210226023104
8	303	136	0.040968228552956
8	304	137	-0.017607946088537
8	305	138	0.024355108910239
8	306	139	0.018833703720011
8	307	140	0.0098656048648991
8	308	141	-0.084429220608435
8	309	142	0.1161646957742
8	310	143	-0.026468190946616
8	311	144	0.016224144210573
8	312	145	0.017954750047066
8	313	146	-0.086752803607379
8	314	147	0.045634120837786
8	315	148	-0.038706488069147
8	316	149	0.048007548274473
8	317	150	0.0042608453403226
8	318	151	-0.066847989798989
8	319	152	0.078394003864377
8	320	153	-0.0043714303267191
8	321	154	-0.074117545965127
8	322	155	0.096223014865537
8	323	156	-0.016548605826683
8	324	157	-0.077465037947986
8	325	158	0.0064275499852364
8	326	159	-0.0090893771266565
8	327	160	-0.030336456936784
8	328	161	0.11574898932362
8	329	162	-0.023424426829443
8	330	163	-0.022742380010895
8	331	164	0.039277818629053
8	332	165	-0.0022900215862336
8	333	166	-0.023574351174757
8	334	167	-0.059759290162473
8	335	168	-0.0011746940901496
8	336	169	0.014468565683346
8	337	170	0.0027157383551817
8	338	171	-0.028823833672796
8	339	172	0.017632111532148
8	340	173	-0.026961142108776
8	341	174	0.022797123109923
8	342	175	0.0799381512939
8	343	176	-0.059468666124157
8	344	177	0.067985334468538
8	345	178	-0.081778387010562
8	346	179	0.070096094980835
8	347	180	-0.059579664238262
8	348	181	-0.0046113440208142
8	349	182	0.025734092276544
8	350	183	-0.043480062216986
8	351	184	0.024016547286882
8	352	185	0.0023531728284443
8	353	186	0.010155816290062
8	354	187	0.040027590666432
8	355	188	-0.038670860866551
8	356	189	0.024133332881611
8	357	190	0.026750178530346
8	358	191	-0.10572645658627
8	359	192	0.08929821230471
8	360	193	-0.0053218306065528
8	361	194	-0.0695051022782
8	362	195	0.088264605186414
8	363	196	-0.067075118236243
8	364	197	0.019216861524619
8	365	198	0.040047375424765
8	366	199	-0.027396086284424
8	367	200	-0.043486164514906
9	7	6	3.9274001426868
9	8	7	5.2041356246368
9	9	8	5.7574507674447
9	10	9	7.0006276784153
9	11	10	8.2432295261252
9	12	11	3.9110016848773
9	13	12	1.7792042638201
9	14	13	2.0579365757541
9	15	14	2.3818636967155
9	16	15	1.7037407999188
9	17	16	2.0152488537881
9	18	17	2.1655550639215
9	19	18	1.906797412239
9	20	19	2.2849654495652
9	21	20	1.9716653983805
9	22	21	0.973
9	23	22	0.973
9	24	23	0.973
9	25	24	2.2554461901322
9	26	25	5.6119510382766
9	27	26	7.5118703720454
9	28	27	8.4454142222778
9	29	28	3.3567382401729
9	30	29	1.8466200733259
9	31	30	2.0660268329645
9	32	31	2.2281549844786
9	33	32	1.7636366802921
9	34	33	2.2551098275762
9	35	34	1.7684997412893
9	36	35	2.128536515163
9	37	36	2.0452194132881
9	38	37	1.9551522523571
9	39	38	1.9257622092797
9	40	39	2.1529150856881
9	41	40	1.9766112501986
9	42	41	2.227211566261
9	43	42	1.8570874855172
9	44	43	1.9372619304987
9	45	44	2.4122020576037
9	46	45	1.9962701074073
9	47	46	1.678919513654
9	48	47	2.0727353634104
9	49	48	2.0569136598736
9	50	49	2.1103478139964
9	51	50	2.3120309045037
9	52	51	1.6427666507625
9	53	52	2.2232247925472
9	54	53	2.1202563026726
9	55	54	2.1193583924862
9	56	55	1.9065956504161
9	57	56	1.8305118457369
9	58	57	2.2544630998412
9	59	58	1.9497933768092
9	60	59	2.199742909699
9	61	60	1.9416842431598
9	62	61	2.0340583936544
9	63	62	1.8947902862501
9	64	63	2.3236156337703
9	65	64	1.8116807487081
9	66	65	2.1067187558746
9	67	66	1.8553069725578
9	68	67	2.1063875713732
9	69	68	2.0258903509268
9	70	69	2.262932728219
9	71	70	1.8847315060405
9	72	71	1.8082762607161
9	73	72	2.000878333413
9	74	73	2.429855254272
9	76	74	0.973
9	77	75	0.973
9	78	76	0.973
9	79	77	0.973
9	80	78	0.973
9	81	79	0.973
9	82	80	0.973
9	83	81	0.973
9	84	82	1.1111119019434
9	85	83	1.1105381414235
9	86	84	1.1102037152763
9	119	85	1.1100733085856
9	120	86	1.1100272895206
9	253	87	1.1100095098939
9	254	88	1.1100034774397
9	255	89	1.1100012226119
9	256	90	0.973
9	257	91	0.973
9	258	92	0.973
9	259	93	0.973
9	260	94	0.973
9	261	95	0.973
9	262	96	0.973
9	263	97	0.973
9	264	98	0.973
9	265	99	0.973
9	266	100	0.973
9	267	101	0.973
9	268	102	0.973
9	269	103	0.973
9	270	104	0.973
9	271	105	0.973
9	272	106	0.973
9	273	107	0.973
9	274	108	0.973
9	275	109	0.973
9	276	110	0.973
9	277	111	0.973
9	278	112	0.973
9	279	113	0.973
9	280	114	0.973
9	281	115	0.973
9	282	116	0.973
9	283	117	0.973
9	284	118	0.973
9	285	119	0.973
9	286	120	0.973
9	287	121	0.973
9	288	122	0.973
9	289	123	0.973
9	291	124	1.4237089054943
9	292	125	2.6561673345315
9	293	126	3.4221247044192
9	294	127	4.8143735134473
9	295	128	5.7198176893124
9	296	129	6.4081113902514
9	297	130	8.0908912625052
9	298	131	6.3148739627382
9	299	132	2.1952654366489
9	300	133	2.1269451191026
9	301	134	1.7855558300948
9	302	135	1.9192758908256
9	303	136	2.1682894028507
9	304	137	1.9700401564216
9	305	138	2.1132780923625
9	306	139	2.0967521261933
9	307	140	2.0676394119274
9	308	141	1.7435781492056
9	309	142	2.4293300508524
9	310	143	1.945929812323
9	311	144	2.0913101916029
9	312	145	2.0990577040159
9	313	146	1.7388095837429
9	314	147	2.1877632083839
9	315	148	1.9005145370032
9	316	149	2.1968042961102
9	317	150	2.0500150684712
9	318	151	1.8048797568188
9	319	152	2.3009863061562
9	320	153	2.0216810197987
9	321	154	1.780515749493
9	322	155	2.3632863193112
9	323	156	1.9812120211058
9	324	157	1.7694840250872
9	325	158	2.0512663796081
9	326	159	1.9983405927992
9	327	160	1.9242939949574
9	328	161	2.4276901516778
9	329	162	1.9562892484012
9	330	163	1.9563851254971
9	331	164	2.1691450530814
9	332	165	2.0288611293971
9	333	166	1.9548839267273
9	334	167	1.8279616767825
9	335	168	2.0240172755128
9	336	169	2.0779186428145
9	337	170	2.0388041841175
9	338	171	1.9303371884883
9	339	172	2.0876231595316
9	340	173	1.9356815008423
9	341	174	2.1044779476447
9	342	175	2.3055260701722
9	343	176	1.8307829891951
9	344	177	2.2662806746104
9	345	178	1.7548306755801
9	346	179	2.2720005806138
9	347	180	1.8301239210578
9	348	181	2.0139611584983
9	349	182	2.1184548977988
9	350	183	1.8820622773112
9	351	184	2.1105901217828
9	352	185	2.0381880285476
9	353	186	2.0654171025105
9	354	187	2.1701501242676
9	355	188	1.9016664336508
9	356	189	2.115080171746
9	357	190	2.1267878757564
9	358	191	1.6724015891121
9	359	192	2.3354699236668
9	360	193	2.0165438344089
9	361	194	1.7947323598987
9	362	195	2.3336526889491
9	363	196	1.8046791804414
9	364	197	2.0959769440988
9	365	198	2.1703747108873
9	366	199	1.9407223518191
9	367	200	1.8826881282275
10	8	7	2414.8848622198
10	9	8	2412.0691307599
10	10	9	2407.3819784434
10	11	10	2402.4639103656
10	12	11	2396.2016479742
10	13	12	2388.5021761758
10	14	13	2379.5347220144
10	15	14	2369.7521497252
10	16	15	2359.9648396304
10	17	16	2350.1723556184
10	18	17	2340.7161122249
10	19	18	2334.4863318084
10	20	19	2338.0388837855
10	21	20	2348.7162272405
10	22	21	2359.0770236719
10	23	22	2372.2007949079
10	24	23	2386.010271322
10	25	24	2399.0762902726
10	26	25	2411.484527283
10	27	26	2420.8333089479
10	28	27	2428.2542426233
10	29	28	2431.5093224974
10	30	29	2433.2156256068
10	31	30	2435.1992711991
10	32	31	2437.2895554004
10	33	32	2438.6721480945
10	34	33	2439.5454191591
10	35	34	2440.5550555143
10	36	35	2441.566434403
10	37	36	2442.5774343592
10	38	37	2443.5888328247
10	39	38	2444.5987397447
10	40	39	2445.6088866147
10	41	40	2446.6194886105
10	42	41	2447.6287603021
10	43	42	2448.6382062534
10	44	43	2449.6477686741
10	45	44	2450.6565878353
10	46	45	2449.5520852645
10	47	46	2448.4391302645
10	48	47	2447.3281790476
10	49	48	2446.2153603552
10	50	49	2445.1026655379
10	51	50	2443.9907900703
10	52	51	2442.8774200421
10	53	52	2441.762868715
10	54	53	2440.6518654483
10	55	54	2439.6886311211
10	56	55	2438.7473849598
10	57	56	2437.8366543562
10	58	57	2432.6810134026
10	59	58	2422.192142412
10	60	59	2409.0629293759
10	61	60	2395.1286386173
10	62	61	2381.220634785
10	63	62	2367.3120238426
10	64	63	2353.3924727546
10	65	64	2339.4375072155
10	66	65	2325.4924610953
10	67	66	2311.551172052
10	68	67	2297.609359026
10	69	68	2283.6866593875
10	70	69	2269.7956423091
10	71	70	2255.8755839472
10	72	71	2242.0023597894
10	73	72	2228.1967285429
10	74	73	2214.4712433064
10	76	74	2201.2795227622
10	77	75	2188.1004929141
10	78	76	2175.9747464515
10	79	77	2166.9824954164
10	80	78	2160.1362991738
10	81	79	2155.2586842566
10	82	80	2152.1189943965
10	83	81	2150.3637586404
10	84	82	2149.530997758
10	85	83	2149.1846798579
10	86	84	2149.0524269362
10	119	85	2149.0023107522
10	120	86	2148.9835767669
10	253	87	2148.9765781163
10	254	88	2148.973959579
10	255	89	2148.9729717197
10	256	90	2148.9726054703
10	257	91	2148.9724708119
10	258	92	2148.972423204
10	259	93	2148.9724059048
10	260	94	2148.9724041201
10	261	95	2148.9724041201
10	262	96	2148.9724041201
10	263	97	2148.9724041201
10	264	98	2148.9724041201
10	265	99	2148.9724041201
10	266	100	2148.9724041201
10	267	101	2148.9724041201
10	268	102	2148.9724041201
10	269	103	2148.9724041201
10	270	104	2148.9724041201
10	271	105	2148.9724041201
10	272	106	2148.9724041201
10	273	107	2148.9724041201
10	274	108	2148.9724041201
10	275	109	2148.9724041201
10	276	110	2148.9724041201
10	277	111	2148.9724041201
10	278	112	2148.9724041201
10	279	113	2148.9724041201
10	280	114	2148.9724041201
10	281	115	2148.9724041201
10	282	116	2148.9724041201
10	283	117	2148.9724041201
10	284	118	2148.9724041201
10	285	119	2148.9724041201
10	286	120	2148.9724041201
10	287	121	2148.9724041201
10	288	122	2148.9724041201
10	289	123	2148.9724041201
10	291	124	2148.9007831401
10	292	125	2148.038250959
10	293	126	2145.7327543597
10	294	127	2141.8494973864
10	295	128	2136.7583300235
10	296	129	2131.1868079524
10	297	130	2124.1719151243
10	298	131	2115.756152481
10	299	132	2106.3136309811
10	300	133	2096.7794702272
10	301	134	2087.2538478392
10	302	135	2077.7253113051
10	303	136	2068.2003923072
10	304	137	2058.6725902561
10	305	138	2049.1486810083
10	306	139	2039.2284107198
10	307	140	2029.2327351068
10	308	141	2019.2298644078
10	309	142	2009.2452964925
10	310	143	1999.2617398646
10	311	144	1989.2525439173
10	312	145	1979.2504164627
10	313	146	1969.2643605965
10	314	147	1959.2822432286
10	315	148	1949.2807685229
10	316	149	1939.276029762
10	317	150	1929.4937581591
10	318	151	1919.7543844259
10	319	152	1910.0184274389
10	320	153	1900.2877275383
10	321	154	1890.5506864372
10	322	155	1880.8034292383
10	323	156	1871.0692057627
10	324	157	1861.3360374317
10	325	158	1851.6125382552
10	326	159	1841.8688631384
10	327	160	1831.9548232661
10	328	161	1821.843354344
10	329	162	1811.7300704725
10	330	163	1801.747578977
10	331	164	1791.80876515
10	332	165	1781.8503789566
10	333	166	1771.8955267821
10	334	167	1761.9489240501
10	335	168	1752.0150387468
10	336	169	1742.0678016143
10	337	170	1732.1146824113
10	338	171	1722.1581908994
10	339	172	1712.2071080429
10	340	173	1702.2616566484
10	341	174	1692.3053172641
10	342	175	1682.3498795761
10	343	176	1672.4072470465
10	344	177	1662.4570033103
10	345	178	1652.5092005507
10	346	179	1642.5553008604
10	347	180	1632.6073225156
10	348	181	1622.6473664609
10	349	182	1612.8371030111
10	350	183	1603.0209450345
10	351	184	1593.2014892821
10	352	185	1583.3980354826
10	353	186	1573.5801309793
10	354	187	1563.7651133292
10	355	188	1553.4592958252
10	356	189	1542.8982785909
10	357	190	1532.3377841018
10	358	191	1521.7958221374
10	359	192	1511.247858503
10	360	193	1500.3696660607
10	361	194	1488.980102819
10	362	195	1477.5669770746
10	363	196	1466.1461053292
10	364	197	1454.7518478715
10	365	198	1442.7713737648
10	366	199	1430.1334277812
10	367	200	1417.4673916373
11	8	7	1578.4476927174
11	9	8	1579.4816146148
11	10	9	1581.3305685576
11	11	10	1586.311893981
11	12	11	1592.6547030602
11	13	12	1600.4532072712
11	14	13	1609.5360029312
11	15	14	1619.4444009606
11	16	15	1629.3575977338
11	17	16	1639.2760349726
11	18	17	1649.4777396033
11	19	18	1661.5011211252
11	20	19	1673.8608168028
11	21	20	1682.8129852964
11	22	21	1692.1566110272
11	23	22	1695.6477235677
11	24	23	1697.440521135
11	25	24	1698.6882266616
11	26	25	1699.8615083322
11	27	26	1700.7454980686
11	28	27	1701.4019192904
11	29	28	1709.7547789775
11	30	29	1720.9831210487
11	31	30	1734.0365176788
11	32	31	1747.7916505802
11	33	32	1761.6696703304
11	34	33	1775.5925959917
11	35	34	1789.4770868318
11	36	35	1803.3855409436
11	37	36	1817.2887839889
11	38	37	1831.19750732
11	39	38	1845.0857189605
11	40	39	1858.9772303868
11	41	40	1872.875000691
11	42	41	1886.7544766869
11	43	42	1900.6363490988
11	44	43	1914.5198231945
11	45	44	1928.3930760073
11	46	45	1942.2682153173
11	47	46	1956.1593396813
11	48	47	1970.0254542306
11	49	48	1983.9148772992
11	50	49	1997.8027542476
11	51	50	2011.6804046445
11	52	51	2025.576709101
11	53	52	2039.4877577024
11	54	53	2053.3545218995
11	55	54	2067.2377522839
11	56	55	2081.1444057319
11	57	56	2095.0157319121
11	58	57	2107.725429629
11	59	58	2116.5606591664
11	60	59	2120.9623304959
11	61	60	2120.4916878873
11	62	61	2120.0219331421
11	63	62	2119.552157891
11	64	63	2119.0820131274
11	65	64	2118.6106722103
11	66	65	2118.139666331
11	67	66	2117.668787349
11	68	67	2117.1978906691
11	69	68	2116.7276395606
11	70	69	2116.2584585575
11	71	70	2115.7882966604
11	72	71	2114.7430813629
11	73	72	2112.7853361461
11	74	73	2110.5313423071
11	76	74	2106.0573249161
11	77	75	2101.5876116185
11	78	76	2096.9123678459
11	79	77	2091.6187716443
11	80	78	2087.5885240138
11	81	79	2084.7171491273
11	82	80	2082.8688632809
11	83	81	2081.8355837055
11	84	82	2081.3453505225
11	85	83	2081.1414786428
11	86	84	2081.0636234358
11	119	85	2081.0341208298
11	120	86	2081.0230924282
11	253	87	2081.0189724332
11	254	88	2081.0174309416
11	255	89	2081.0168494042
11	256	90	2081.0166337993
11	257	91	2081.0165545279
11	258	92	2081.0165265016
11	259	93	2081.0165163185
11	260	94	2081.016515268
11	261	95	2081.016515268
11	262	96	2081.016515268
11	263	97	2081.016515268
11	264	98	2081.016515268
11	265	99	2081.016515268
11	266	100	2081.016515268
11	267	101	2081.016515268
11	268	102	2081.016515268
11	269	103	2081.016515268
11	270	104	2081.016515268
11	271	105	2081.016515268
11	272	106	2081.016515268
11	273	107	2081.016515268
11	274	108	2081.016515268
11	275	109	2081.016515268
11	276	110	2081.016515268
11	277	111	2081.016515268
11	278	112	2081.016515268
11	279	113	2081.016515268
11	280	114	2081.016515268
11	281	115	2081.016515268
11	282	116	2081.016515268
11	283	117	2081.016515268
11	284	118	2081.016515268
11	285	119	2081.016515268
11	286	120	2081.016515268
11	287	121	2081.016515268
11	288	122	2081.016515268
11	289	123	2081.016515268
11	291	124	2080.9743531272
11	292	125	2080.4665940516
11	293	126	2079.1093846066
11	294	127	2076.8233725401
11	295	128	2072.8848914159
11	296	129	2066.9372853786
11	297	130	2059.448879445
11	298	131	2050.4650434181
11	299	132	2040.3851411641
11	300	133	2030.2074139044
11	301	134	2020.0388013599
11	302	135	2009.8670779606
11	303	136	1999.6992162857
11	304	137	1989.5282769483
11	305	138	1979.3614931824
11	306	139	1969.6151005924
11	307	140	1959.8983151047
11	308	141	1950.174535281
11	309	142	1940.4685475742
11	310	143	1930.763542938
11	311	144	1921.0336143477
11	312	145	1911.3105570311
11	313	146	1901.6031228881
11	314	147	1891.8995173555
11	315	148	1882.1770945759
11	316	149	1872.4514988111
11	317	150	1862.5112286732
11	318	151	1852.5309006171
11	319	152	1842.5540738385
11	320	153	1832.5826342069
11	321	154	1822.6046964927
11	322	155	1812.6162899323
11	323	156	1802.6412395528
11	324	157	1792.667270422
11	325	158	1782.7032096619
11	326	159	1772.7184738051
11	327	160	1762.9097738815
11	328	161	1753.3064559838
11	329	162	1743.7014143458
11	330	163	1733.9959344333
11	331	164	1724.2557724016
11	332	165	1714.4964292059
11	333	166	1704.7405493921
11	334	167	1694.9927541353
11	335	168	1685.2574221184
11	336	169	1675.5090051414
11	337	170	1665.7548236623
11	338	171	1655.997337277
11	339	172	1646.2451514425
11	340	173	1636.4984845109
11	341	174	1626.7411472136
11	342	175	1616.9846935896
11	343	176	1607.2407891816
11	344	177	1597.4894256955
11	345	178	1587.7404543962
11	346	179	1577.9855080293
11	347	180	1568.2363646552
11	348	181	1558.4754829751
11	349	182	1548.7324537747
11	350	183	1538.8234959859
11	351	184	1528.9112092443
11	352	185	1519.0150757348
11	353	186	1509.1043549068
11	354	187	1499.1965482244
11	355	188	1489.8016533451
11	356	189	1480.6663166378
11	357	190	1471.5314321071
11	358	191	1462.4125783108
11	359	192	1453.2885330375
11	360	193	1444.5665121088
11	361	194	1436.5400491245
11	362	195	1428.4969811514
11	363	196	1420.4484544108
11	364	197	1412.4186833147
11	365	198	1405.3411923377
11	366	199	1399.382910179
11	367	200	1393.4113846412
12	9	8	3.930963162637
12	10	9	5.9263112237273
12	11	10	7.8381960794392
12	12	11	9.790430662247
12	13	12	11.728100012452
12	14	13	13.629514704516
12	15	14	13.941568216505
12	16	15	13.881279769889
12	17	16	13.971794058217
12	18	17	13.960273657767
12	19	18	13.911415289124
12	20	19	13.968606978769
12	21	20	13.918509052745
12	22	21	13.924308654484
12	23	22	13.951645852409
12	24	23	13.87926841794
12	25	24	12.78797947827
12	26	25	11.837690065153
12	27	26	7.3980335002041
12	28	27	8.4669319590365
12	29	28	10.36200773346
12	30	29	12.182875653363
12	31	30	13.961659159465
12	32	31	13.954832898835
12	33	32	13.985199820679
12	34	33	13.960810766406
12	35	34	13.891565381922
12	36	35	13.926770333524
12	37	36	13.995444845858
12	38	37	13.968891001421
12	39	38	13.946054615651
12	40	39	13.923495069395
12	41	40	13.987141459195
12	42	41	13.896561784002
12	43	42	13.918587832316
12	44	43	13.885694856092
12	45	44	13.876576944217
12	46	45	13.978634591533
12	47	46	13.870964713767
12	48	47	13.924202720022
12	49	48	13.92197895369
12	50	49	13.924442841869
12	51	50	13.971125322985
12	52	51	13.940070941378
12	53	52	13.927221914497
12	54	53	13.918471177055
12	55	54	13.943802753214
12	56	55	13.974182019795
12	57	56	13.950985880545
12	58	57	13.943263569523
12	59	58	13.891897078918
12	60	59	13.874182712052
12	61	60	13.982985400616
12	62	61	13.927164004399
12	63	62	13.899862960158
12	64	63	13.960168966714
12	65	64	13.961850514959
12	66	65	13.962242161995
12	67	66	13.940126294529
12	68	67	13.976873478838
12	69	68	13.874106407524
12	70	69	13.877533680827
12	71	70	13.96220104418
12	72	71	13.895542410433
12	73	72	13.966860863678
12	74	73	13.984866273401
12	76	74	13.92864668397
12	77	75	13.913223413506
12	78	76	11.872573561487
12	79	77	9.3344878927536
12	80	78	6.8464061208629
12	81	79	4.7165365299023
12	82	80	2.8541792008793
12	83	81	1.4853751387147
12	84	82	0.65152483887674
12	85	83	0.24601709552425
12	86	84	0.096432210018558
12	119	85	0.036458364231671
12	120	86	0.013164238840444
12	253	87	0.0049223111739549
12	254	88	0.0018859933947747
12	255	89	0.00071643121152211
12	256	90	0.00025481438163008
12	257	91	9.2420192229665e-05
12	258	92	3.3623646873102e-05
12	259	93	1.1859545252433e-05
12	260	94	0
12	261	95	0
12	262	96	0
12	263	97	0
12	264	98	0
12	265	99	0
12	266	100	0
12	267	101	0
12	268	102	0
12	269	103	0
12	270	104	0
12	271	105	0
12	272	106	0
12	273	107	0
12	274	108	0
12	275	109	0
12	276	110	0
12	277	111	0
12	278	112	0
12	279	113	0
12	280	114	0
12	281	115	0
12	282	116	0
12	283	117	0
12	284	118	0
12	285	119	0
12	286	120	0
12	287	121	0
12	288	122	0
12	289	123	0
12	291	124	0.28739561770791
12	292	125	1.7207652888912
12	293	126	3.423166085732
12	294	127	5.4434101355964
12	295	128	7.1953765968484
12	296	129	9.1073696049391
12	297	130	11.249738766099
12	298	131	13.096956511577
12	299	132	13.994902517959
12	300	133	13.903105560713
12	301	134	13.912269434188
12	302	135	13.972713491837
12	303	136	13.96280725281
12	304	137	13.912335606478
12	305	138	13.915980543813
12	306	139	13.952090022115
12	307	140	13.935597791255
12	308	141	13.965222424427
12	309	142	13.909860938902
12	310	143	13.933487894742
12	311	144	13.90288927115
12	312	145	13.911214953663
12	313	146	13.979444705339
12	314	147	13.983629631826
12	315	148	13.906940082381
12	316	149	13.943020810124
12	317	150	13.938544942813
12	318	151	13.905951711703
12	319	152	13.903443251739
12	320	153	13.984806166936
12	321	154	13.95678118862
12	322	155	13.961197258048
12	323	156	13.886207295568
12	324	157	13.919199997715
12	325	158	13.884437573871
12	326	159	13.978556371981
12	327	160	13.99482578865
12	328	161	13.953962537667
12	329	162	13.896440169937
12	330	163	13.917363867669
12	331	164	13.882427437152
12	332	165	13.959142048366
12	333	166	13.934414215176
12	334	167	13.997141638149
12	335	168	13.880445862059
12	336	169	13.988926165542
12	337	170	13.945821245471
12	338	171	13.895310750878
12	339	172	13.985645975268
12	340	173	13.934031473042
12	341	174	13.887533728508
12	342	175	13.956735965256
12	343	176	13.906496507896
12	344	177	13.892219312326
12	345	178	13.931761855134
12	346	179	13.906034650307
12	347	180	13.928810386665
12	348	181	13.929876631205
12	349	182	13.930902947583
12	350	183	13.978870710894
12	351	184	13.942439569917
12	352	185	13.916482416282
12	353	186	13.913281143934
12	354	187	13.872779091697
12	355	188	13.919343759529
12	356	189	13.939133758552
12	357	190	13.873881059601
12	358	191	13.979666585217
12	359	192	13.901529799101
12	360	193	13.989513088078
12	361	194	13.922239858443
12	362	195	13.950132229333
12	363	196	13.996127516106
12	364	197	13.902687574539
12	365	198	13.972160039819
12	366	199	13.947741319139
12	367	200	13.939983172731
13	10	9	1.9953480610903
13	11	10	1.9118848557118
13	12	11	1.9522345828079
13	13	12	1.9376693502045
13	14	13	1.9014146920643
13	15	14	0.31205351198868
13	16	15	-0.060288446615449
13	17	16	0.090514288328121
13	18	17	-0.011520400450099
13	19	18	-0.048858368643559
13	20	19	0.057191689645405
13	21	20	-0.050097926023881
13	22	21	0.0057996017392714
13	23	22	0.027337197924499
13	24	23	-0.072377434468363
13	25	24	-1.0912889396709
13	26	25	-0.95028941311648
13	27	26	-4.439656564949
13	28	27	1.0688984588324
13	29	28	1.8950757744233
13	30	29	1.8208679199032
13	31	30	1.7787835061017
13	32	31	-0.0068262606300422
13	33	32	0.03036692184396
13	34	33	-0.024389054272323
13	35	34	-0.06924538448453
13	36	35	0.0352049516025
13	37	36	0.068674512333237
13	38	37	-0.026553844437004
13	39	38	-0.02283638576977
13	40	39	-0.022559546255506
13	41	40	0.063646389800123
13	42	41	-0.090579675193876
13	43	42	0.022026048314293
13	44	43	-0.032892976223957
13	45	44	-0.0091179118747835
13	46	45	0.10205764731625
13	47	46	-0.10766987776617
13	48	47	0.053238006255125
13	49	48	-0.0022237663320279
13	50	49	0.0024638881790455
13	51	50	0.04668248111615
13	52	51	-0.031054381607101
13	53	52	-0.012849026881158
13	54	53	-0.0087507374421705
13	55	54	0.025331576159225
13	56	55	0.030379266580567
13	57	56	-0.023196139249485
13	58	57	-0.007722311022226
13	59	58	-0.051366490605288
13	60	59	-0.017714366866276
13	61	60	0.10880268856417
13	62	61	-0.055821396217215
13	63	62	-0.027301044240593
13	64	63	0.06030600655591
13	65	64	0.0016815482452515
13	66	65	0.00039164703572148
13	67	66	-0.0221158674662
13	68	67	0.036747184309643
13	69	68	-0.10276707131416
13	70	69	0.0034272733028047
13	71	70	0.084667363353073
13	72	71	-0.066658633747139
13	73	72	0.071318453245331
13	74	73	0.018005409722683
13	76	74	-0.056219589430839
13	77	75	-0.015423270463945
13	78	76	-2.0406498520188
13	79	77	-2.5380856687337
13	80	78	-2.4880817718907
13	81	79	-2.1298695909606
13	82	80	-1.8623573290231
13	83	81	-1.3688040621646
13	84	82	-0.83385029983795
13	85	83	-0.40550774335249
13	86	84	-0.1495848855057
13	119	85	-0.059973845786887
13	120	86	-0.023294125391227
13	253	87	-0.0082419276664889
13	254	88	-0.0030363177791802
13	255	89	-0.0011695621832526
13	256	90	-0.00046161682989202
13	257	91	-0.00016239418940042
13	258	92	-5.8796545356563e-05
13	259	93	-2.1764101620669e-05
13	260	94	-1.1859545252433e-05
13	261	95	0
13	262	96	0
13	263	97	0
13	264	98	0
13	265	99	0
13	266	100	0
13	267	101	0
13	268	102	0
13	269	103	0
13	270	104	0
13	271	105	0
13	272	106	0
13	273	107	0
13	274	108	0
13	275	109	0
13	276	110	0
13	277	111	0
13	278	112	0
13	279	113	0
13	280	114	0
13	281	115	0
13	282	116	0
13	283	117	0
13	284	118	0
13	285	119	0
13	286	120	0
13	287	121	0
13	288	122	0
13	289	123	0
13	291	124	0.28739561770791
13	292	125	1.4333696711833
13	293	126	1.7024007968408
13	294	127	2.0202440498644
13	295	128	1.7519664612521
13	296	129	1.9119930080906
13	297	130	2.1423691611597
13	298	131	1.8472177454783
13	299	132	0.89794600638146
13	300	133	-0.091796957245096
13	301	134	0.0091638734750461
13	302	135	0.060444057649001
13	303	136	-0.0099062390276234
13	304	137	-0.050471646331715
13	305	138	0.0036449373350464
13	306	139	0.03610947830137
13	307	140	-0.016492230859585
13	308	141	0.029624633172061
13	309	142	-0.0553614855255
13	310	143	0.023626955840736
13	311	144	-0.03059862359194
13	312	145	0.0083256825129503
13	313	146	0.068229751675389
13	314	147	0.0041849264875058
13	315	148	-0.076689549444708
13	316	149	0.036080727742519
13	317	150	-0.0044758673105392
13	318	151	-0.032593231110368
13	319	152	-0.0025084599643002
13	320	153	0.081362915197387
13	321	154	-0.028024978316388
13	322	155	0.00441606942797
13	323	156	-0.07498996248003
13	324	157	0.032992702147457
13	325	158	-0.034762423844077
13	326	159	0.094118798109703
13	327	160	0.016269416669385
13	328	161	-0.040863250982948
13	329	162	-0.057522367730272
13	330	163	0.020923697731924
13	331	164	-0.034936430517117
13	332	165	0.076714611214118
13	333	166	-0.024727833189536
13	334	167	0.062727422972676
13	335	168	-0.11669577609049
13	336	169	0.10848030348308
13	337	170	-0.043104920070618
13	338	171	-0.050510494592601
13	339	172	0.090335224389564
13	340	173	-0.051614502226002
13	341	174	-0.046497744533699
13	342	175	0.069202236747369
13	343	176	-0.050239457360004
13	344	177	-0.014277195569592
13	345	178	0.039542542807757
13	346	179	-0.025727204827126
13	347	180	0.022775736358017
13	348	181	0.0010662445402687
13	349	182	0.0010263163782671
13	350	183	0.047967763310298
13	351	184	-0.036431140976493
13	352	185	-0.025957153635099
13	353	186	-0.0032012723479422
13	354	187	-0.040502052237279
13	355	188	0.046564667832572
13	356	189	0.019789999022615
13	357	190	-0.065252698950935
13	358	191	0.10578552561579
13	359	192	-0.078136786115355
13	360	193	0.087983288976829
13	361	194	-0.067273229635321
13	362	195	0.027892370889894
13	363	196	0.045995286772959
13	364	197	-0.093439941566903
13	365	198	0.069472465279977
13	366	199	-0.024418720679824
13	367	200	-0.0077581464080136
14	10	9	4.2649508166984
14	11	10	5.1441608835298
14	12	11	6.2752675611406
14	13	12	7.3015557220543
14	14	13	8.2469806235914
14	15	14	3.0813423760871
14	16	15	1.825038103975
14	17	16	2.3407378903898
14	18	17	1.9960199446414
14	19	18	1.8659878265238
14	20	19	2.2281639022586
14	21	20	1.8624692368163
14	22	21	2.0505690853877
14	23	22	2.1258147014109
14	24	23	1.7844264067381
14	25	24	0.973
14	26	25	0.973
14	27	26	0.973
14	28	27	3.7556374403366
14	29	28	6.4451086117978
14	30	29	7.2109437498459
14	31	30	8.02010049157
14	32	31	2.0112657729674
14	33	32	2.1396802881933
14	34	33	1.9527760757483
14	35	34	1.7959478714997
14	36	35	2.1495182688557
14	37	36	2.270012970431
14	38	37	1.9462673079904
14	39	38	1.9565732768429
14	40	39	1.9553240988603
14	41	40	2.2520752166183
14	42	41	1.7249227613829
14	43	42	2.1044075086179
14	44	43	1.9171004249178
14	45	44	1.9957558357455
14	46	45	2.3804752074115
14	47	46	1.6657484443578
14	48	47	2.2097487475568
14	49	48	2.0234083035751
14	50	49	2.0393889998777
14	51	50	2.1930713650415
14	52	51	1.9283863421713
14	53	52	1.988276878934
14	54	53	2.0011588397733
14	55	54	2.1182220212813
14	56	55	2.1385129923661
14	57	56	1.9558403568303
14	58	57	2.007091813677
14	59	58	1.8558336695686
14	60	59	1.9667740746073
14	61	60	2.4037578966905
14	62	61	1.844036691971
14	63	62	1.9371616602798
14	64	63	2.2376623461065
14	65	64	2.0405988072341
14	66	65	2.0362986285583
14	67	66	1.9584211470379
14	68	67	2.1602580826028
14	69	68	1.6823793533561
14	70	69	2.0378081377803
14	71	70	2.3198729728639
14	72	71	1.8049486863528
14	73	72	2.2755120689996
14	74	73	2.0979810210242
14	76	74	1.8428313235071
14	77	75	1.9782615365513
14	78	76	0.973
14	79	77	0.973
14	80	78	0.973
14	81	79	0.973
14	82	80	0.973
14	83	81	0.973
14	84	82	0.973
14	85	83	0.973
14	86	84	0.973
14	119	85	1.1112317978236
14	120	86	1.1105611405797
14	253	87	1.1102276750929
14	254	88	1.1100896002414
14	255	89	1.1100343587052
14	256	90	1.1100122638978
14	257	91	1.110004454733
14	258	92	1.1100016215283
14	259	93	1.1100005720423
14	260	94	0.973
14	261	95	0.973
14	262	96	0.973
14	263	97	0.973
14	264	98	0.973
14	265	99	0.973
14	266	100	0.973
14	267	101	0.973
14	268	102	0.973
14	269	103	0.973
14	270	104	0.973
14	271	105	0.973
14	272	106	0.973
14	273	107	0.973
14	274	108	0.973
14	275	109	0.973
14	276	110	0.973
14	277	111	0.973
14	278	112	0.973
14	279	113	0.973
14	280	114	0.973
14	281	115	0.973
14	282	116	0.973
14	283	117	0.973
14	284	118	0.973
14	285	119	0.973
14	286	120	0.973
14	287	121	0.973
14	288	122	0.973
14	289	123	0.973
14	291	124	1.1437718515691
14	292	125	1.7879051694818
14	293	126	2.6832908774537
14	294	127	4.0377711730306
14	295	128	4.5295789107142
14	296	129	5.8157105304668
14	297	130	7.5925733932486
14	298	131	7.7798248435881
14	299	132	5.0668916609715
14	300	133	1.721367282148
14	301	134	2.0606050634785
14	302	135	2.2395928300743
14	303	136	2.0017037098419
14	304	137	1.8606616341646
14	305	138	2.0424822616003
14	306	139	2.1553594021813
14	307	140	1.9768698903712
14	308	141	2.1349908062874
14	309	142	1.8440475451124
14	310	143	2.1113820059348
14	311	144	1.926400958167
14	312	145	2.0576851869584
14	313	146	2.2666103431205
14	314	147	2.051273192428
14	315	148	1.7723064715939
14	316	149	2.1542574253838
14	317	150	2.0175242371437
14	318	151	1.9200055947659
14	319	152	2.0205758227299
14	320	153	2.3115108292486
14	321	154	1.9401580416555
14	322	155	2.0497324427433
14	323	156	1.7762677040919
14	324	157	2.1412610955075
14	325	158	1.9107271119109
14	326	159	2.3537206244815
14	327	160	2.0931898138961
14	328	161	1.8967150850569
14	329	162	1.8356233546815
14	330	163	2.1005788827002
14	331	164	1.9099574377979
14	332	165	2.2927434830909
14	333	166	1.94909705517
14	334	167	2.2501536426799
14	335	168	1.6362723725316
14	336	169	2.4034354357772
14	337	170	1.8884293379027
14	338	171	1.8590052386584
14	339	172	2.3418548632167
14	340	173	1.8587721115128
14	341	174	1.8717390893396
14	342	175	2.2671845953899
14	343	176	1.8609160726544
14	344	177	1.9800383411441
14	345	178	2.1646335097608
14	346	179	1.9430238761257
14	347	180	2.1080207347124
14	348	181	2.0352544160891
14	349	182	2.0352253318543
14	350	183	2.198281357827
14	351	184	1.9105438619255
14	352	185	1.9432522168217
14	353	186	2.0192487951073
14	354	187	1.8904505105334
14	355	188	2.186804891094
14	356	189	2.09910079412
14	357	190	1.8077952980462
14	358	191	2.3931658568558
14	359	192	1.7670069684143
14	360	193	2.3344058012147
14	361	194	1.8051769149499
14	362	195	2.1275165511846
14	363	196	2.1935957192832
14	364	197	1.7158290776444
14	365	198	2.2699293966975
14	366	199	1.9514174169799
14	367	200	2.0066425778797
15	11	10	2414.8652957816
15	12	11	2411.9402292009
15	13	12	2407.1594214574
15	14	13	2402.0350675649
15	15	14	2395.5354035812
15	16	15	2387.5598131203
15	17	16	2378.2200343884
15	18	17	2368.4379720603
15	19	18	2358.6490268519
15	20	19	2348.8720237047
15	21	20	2339.5743637176
15	22	21	2334.182845048
15	23	22	2339.4965554875
15	24	23	2350.097007221
15	25	24	2360.4399495791
15	26	25	2374.0004589002
15	27	26	2387.8139768062
15	28	27	2400.6665962391
15	29	28	2412.9939037106
15	30	29	2421.746395349
15	31	30	2429.0979443268
15	32	31	2431.6623465763
15	33	32	2433.4253246518
15	34	33	2435.4539743117
15	35	34	2437.5461966338
15	36	35	2438.7658305317
15	37	36	2439.6674881473
15	38	37	2440.6781950359
15	39	38	2441.6874357171
15	40	39	2442.6982939572
15	41	40	2443.7090440152
15	42	41	2444.7200566496
15	43	42	2445.7322616259
15	44	43	2446.7426978431
15	45	44	2447.7534127671
15	46	45	2448.7645269013
15	47	46	2449.7752593611
15	48	47	2450.5209289911
15	49	48	2449.4084232458
15	50	49	2448.2960603024
15	51	50	2447.1844212001
15	52	51	2446.0710380781
15	53	52	2444.9559955378
15	54	53	2443.8436560896
15	55	54	2442.7323225553
15	56	55	2441.620012138
15	57	56	2440.5069521201
15	58	57	2439.5664439313
15	59	58	2438.6551151561
15	60	59	2437.5033615076
15	61	60	2431.5624012924
15	62	61	2420.5134474781
15	63	62	2407.2226085997
15	64	63	2393.3113757713
15	65	64	2379.3799503214
15	66	65	2365.4589820633
15	67	66	2351.5261596934
15	68	67	2337.5825321582
15	69	68	2323.6469877664
15	70	69	2309.7263669143
15	71	70	2295.7820398757
15	72	71	2281.8501513699
15	73	72	2267.9170685266
15	74	73	2253.9898548673
15	76	74	2240.1153541011
15	77	75	2226.3071140313
15	78	76	2212.6802513145
15	79	77	2199.4930707905
15	80	78	2186.5971174644
15	81	79	2175.9456485887
15	82	80	2168.1423508392
15	83	81	2162.2957870089
15	84	82	2158.233544349
15	85	83	2155.715834188
15	86	84	2154.3528472197
15	119	85	2153.7160767204
15	120	86	2153.4480830446
15	253	87	2153.3462108842
15	254	88	2153.3066024957
15	255	89	2153.2914907347
15	256	90	2153.2856831895
15	257	91	2153.2834518607
15	258	92	2153.2825972588
15	259	93	2153.2822782847
15	260	94	2153.2821586616
15	261	95	2153.2821154218
15	262	96	2153.2820998541
15	263	97	2153.2820989847
15	264	98	2153.2820989847
15	265	99	2153.2820989847
15	266	100	2153.2820989847
15	267	101	2153.2820989847
15	268	102	2153.2820989847
15	269	103	2153.2820989847
15	270	104	2153.2820989847
15	271	105	2153.2820989847
15	272	106	2153.2820989847
15	273	107	2153.2820989847
15	274	108	2153.2820989847
15	275	109	2153.2820989847
15	276	110	2153.2820989847
15	277	111	2153.2820989847
15	278	112	2153.2820989847
15	279	113	2153.2820989847
15	280	114	2153.2820989847
15	281	115	2153.2820989847
15	282	116	2153.2820989847
15	283	117	2153.2820989847
15	284	118	2153.2820989847
15	285	119	2153.2820989847
15	286	120	2153.2820989847
15	287	121	2153.2820989847
15	288	122	2153.2820989847
15	289	123	2153.2820989847
15	291	124	2153.2731636307
15	292	125	2152.9725324796
15	293	126	2151.6413515848
15	294	127	2148.9273399368
15	295	128	2144.552955213
15	296	129	2138.780644574
15	297	130	2132.6875933593
15	298	131	2123.0369524738
15	299	132	2114.4799155169
15	300	133	2104.9825529524
15	301	134	2095.4695370946
15	302	135	2085.9582979348
15	303	136	2076.4293823094
15	304	137	2066.9043279004
15	305	138	2057.3798709083
15	306	139	2047.8465612371
15	307	140	2037.9641311202
15	308	141	2027.9722102636
15	309	142	2017.9749679875
15	310	143	2007.9715472292
15	311	144	1997.9673680258
15	312	145	1987.9858585843
15	313	146	1977.9877627392
15	314	147	1967.995751348
15	315	148	1958.0192791723
15	316	149	1948.0319159123
15	317	150	1938.0420159926
15	318	151	1928.2529002965
15	319	152	1918.5202116811
15	320	153	1908.7958638248
15	321	154	1899.0571594315
15	322	155	1889.3152547262
15	323	156	1879.5843360539
15	324	157	1869.8473295369
15	325	158	1860.1188501267
15	326	159	1850.3853384724
15	327	160	1840.6534112084
15	328	161	1830.8047401085
15	329	162	1820.7075359077
15	330	163	1810.6033244908
15	331	164	1800.5944658211
15	332	165	1790.6307748971
15	333	166	1780.6820098212
15	334	167	1770.7410045832
15	335	168	1760.7942864575
15	336	169	1750.8452847383
15	337	170	1740.8917858069
15	338	171	1730.9405732489
15	339	172	1721.0019984613
15	340	173	1711.0584075553
15	341	174	1701.1023149275
15	342	175	1691.1415917198
15	343	176	1681.1919368597
15	344	177	1671.263483795
15	345	178	1661.3245605115
15	346	179	1651.3842314035
15	347	180	1641.4291809276
15	348	181	1631.4827609839
15	349	182	1621.5498089703
15	350	183	1611.7238666416
15	351	184	1601.9297976986
15	352	185	1592.1411126767
15	353	186	1582.3403039121
15	354	187	1572.5349318353
15	355	188	1562.7421908011
15	356	189	1552.5870861746
15	357	190	1542.0700066393
15	358	191	1531.5531068292
15	359	192	1521.0252673174
15	360	193	1510.5164655318
15	361	194	1499.7922060664
15	362	195	1488.4236296727
15	363	196	1477.0235316766
15	364	197	1465.6436954443
15	365	198	1454.2586264027
15	366	199	1442.4438466966
15	367	200	1429.8677620488
16	11	10	1578.4548774119
16	12	11	1579.5289465943
16	13	12	1581.5559881236
[...]
20	327	160	1856.0043795299
20	328	161	1846.2727919772
20	329	162	1836.5362056667
20	330	163	1826.4335068531
20	331	164	1816.3406713472
20	332	165	1806.2720886959
20	333	166	1796.3236197315
20	334	167	1786.3641764397
20	335	168	1776.3984306047
20	336	169	1766.4512612415
20	337	170	1756.5122340944
20	338	171	1746.5402597605
20	339	172	1736.5893393833
20	340	173	1726.6409211482
20	341	174	1716.69671095
20	342	175	1706.7439783966
20	343	176	1696.7753961328
20	344	177	1686.8238373749
20	345	178	1676.8585658376
20	346	179	1666.9158912223
20	347	180	1656.9556090538
20	348	181	1646.9831041079
20	349	182	1637.0309301508
20	350	183	1627.0654931985
20	351	184	1617.1980441372
20	352	185	1607.3669967677
20	353	186	1597.5467629557
20	354	187	1587.727313823
20	355	188	1577.9057380698
20	356	189	1568.0871624716
20	357	190	1558.1052560679
20	358	191	1547.5443869501
20	359	192	1536.9771660307
20	360	193	1526.4058422379
20	361	194	1515.8593777566
20	362	195	1505.3139238697
20	363	196	1493.9625763667
20	364	197	1482.5842778303
20	365	198	1471.1714030766
20	366	199	1459.7516232397
20	367	200	1448.3105316054
21	14	13	1578.4413889889
21	15	14	1579.5354087027
21	16	15	1581.5597135043
21	17	16	1586.6901259599
21	18	17	1593.1481137825
21	19	18	1600.9864687957
21	20	19	1609.6436360124
21	21	20	1618.346035568
21	22	21	1627.0192473559
21	23	22	1635.7072943877
21	24	23	1644.3897378705
21	25	24	1653.7894394072
21	26	25	1665.1729113702
21	27	26	1675.1026455183
21	28	27	1682.9658746039
21	29	28	1691.1390705388
21	30	29	1695.1652063495
21	31	30	1696.8512097094
21	32	31	1698.131142579
21	33	32	1699.2781635225
21	34	33	1700.3467246834
21	35	34	1700.9775702674
21	36	35	1703.9307261733
21	37	36	1713.7749489127
21	38	37	1725.6824820358
21	39	38	1739.2096336074
21	40	39	1752.9997170167
21	41	40	1766.8903147206
21	42	41	1780.7913582865
21	43	42	1794.7049524188
21	44	43	1808.6052063918
21	45	44	1822.5062779663
21	46	45	1836.3709979877
21	47	46	1850.2508369461
21	48	47	1864.1469554985
21	49	48	1878.0520697543
21	50	49	1891.9624520484
21	51	50	1905.8459301796
21	52	51	1919.7571911588
21	53	52	1933.6629420798
21	54	53	1947.5416343976
21	55	54	1961.4237365089
21	56	55	1975.3191105779
21	57	56	1989.2104023565
21	58	57	2003.1040137438
21	59	58	2016.9987858189
21	60	59	2030.8741027387
21	61	60	2044.7724715192
21	62	61	2058.6536713187
21	63	62	2072.5593054295
21	64	63	2086.4681205526
21	65	64	2100.266317944
21	66	65	2111.9108070349
21	67	66	2118.7645714581
21	68	67	2120.7795959963
21	69	68	2120.309172567
21	70	69	2119.8392175753
21	71	70	2119.368841703
21	72	71	2118.8985826848
21	73	72	2118.4281892488
21	74	73	2117.9576483918
21	76	74	2117.4869932849
21	77	75	2117.0164578855
21	78	76	2116.5464868462
21	79	77	2116.0756242387
21	80	78	2115.6059925472
21	81	79	2113.9879525444
21	82	80	2112.0340215042
21	83	81	2108.8135451172
21	84	82	2104.3394269953
21	85	83	2100.0597849954
21	86	84	2095.7360109584
21	119	85	2091.7747031674
21	120	86	2089.0967549626
21	253	87	2087.5004050927
21	254	88	2086.6810176736
21	255	89	2086.316588087
21	256	90	2086.1744465865
21	257	91	2086.1217305502
21	258	92	2086.1020761924
21	259	93	2086.0948309861
21	260	94	2086.092160522
21	261	95	2086.0911743585
21	262	96	2086.0908134514
21	263	97	2086.0906825708
21	264	98	2086.0906355362
21	265	99	2086.0906187017
21	266	100	2086.0906138532
21	267	101	2086.0906138532
21	268	102	2086.0906138532
21	269	103	2086.0906138532
21	270	104	2086.0906138532
21	271	105	2086.0906138532
21	272	106	2086.0906138532
21	273	107	2086.0906138532
21	274	108	2086.0906138532
21	275	109	2086.0906138532
21	276	110	2086.0906138532
21	277	111	2086.0906138532
21	278	112	2086.0906138532
21	279	113	2086.0906138532
21	280	114	2086.0906138532
21	281	115	2086.0906138532
21	282	116	2086.0906138532
21	283	117	2086.0906138532
21	284	118	2086.0906138532
21	285	119	2086.0906138532
21	286	120	2086.0906138532
21	287	121	2086.0906138532
21	288	122	2086.0906138532
21	289	123	2086.0906138532
21	291	124	2086.0901168697
21	292	125	2086.0475700228
21	293	126	2085.6835177848
21	294	127	2084.6671662983
21	295	128	2082.7860873975
21	296	129	2079.9787631258
21	297	130	2076.5788561748
21	298	131	2071.1758124279
21	299	132	2063.7930522617
21	300	133	2054.9811729258
21	301	134	2044.9545602715
21	302	135	2034.7730336878
21	303	136	2024.6044802843
21	304	137	2014.4316099128
21	305	138	2004.2602490904
21	306	139	1994.0956028141
21	307	140	1983.9209556878
21	308	141	1973.954007782
21	309	142	1964.2458708128
21	310	143	1954.5391033273
21	311	144	1944.8214864098
21	312	145	1935.1083917283
21	313	146	1925.389690808
21	314	147	1915.678019654
21	315	148	1905.9666258162
21	316	149	1896.2540560113
21	317	150	1886.546643666
21	318	151	1876.8311430253
21	319	152	1867.0092054754
21	320	153	1857.0206648791
21	321	154	1847.0519107366
21	322	155	1837.0761623736
21	323	156	1827.1182972966
21	324	157	1817.1392740244
21	325	158	1807.1588617144
21	326	159	1797.1728008427
21	327	160	1787.2037060894
21	328	161	1777.2313568462
21	329	162	1767.2609192934
21	330	163	1757.6659307629
21	331	164	1748.0803098595
21	332	165	1738.430010627
21	333	166	1728.680386439
21	334	167	1718.9200072736
21	335	168	1709.1534515359
21	336	169	1699.4051009743
21	337	170	1689.6647298858
21	338	171	1679.8920701416
21	339	172	1670.140043539
21	340	173	1660.3904690668
21	341	174	1650.6450185226
21	342	175	1640.8912159652
21	343	176	1631.1218804922
21	344	177	1621.369228268
21	345	178	1611.6031373488
21	346	179	1601.8591916952
21	347	180	1592.0979904197
21	348	181	1582.3248106698
21	349	182	1572.5715555428
21	350	183	1562.8053025147
21	351	184	1553.1346222851
21	352	185	1543.2106343424
21	353	186	1533.2975621857
21	354	187	1523.3852821263
21	355	188	1513.4708553422
21	356	189	1503.5594570758
21	357	190	1493.8204339426
21	358	191	1484.6852253564
21	359	192	1475.544522428
21	360	193	1466.4002704918
21	361	194	1457.277521994
21	362	195	1448.1556476653
21	363	196	1440.0513022467
21	364	197	1432.032777735
21	365	198	1423.9898866415
21	366	199	1415.9421293912
21	367	200	1407.9620866776
22	15	14	4.1202440707026
22	16	15	6.098204819389
22	17	16	8.098487650134
22	18	17	9.9198503073131
22	19	18	11.853500083451
22	20	19	12.14361103077
22	21	20	12.232469151314
22	22	21	12.212652387161
22	23	22	12.224955952892
22	24	23	12.147230061465
22	25	24	12.255954041437
22	26	25	12.161706589021
22	27	26	12.143721937142
22	28	27	12.197962211408
22	29	28	12.176101017546
22	30	29	12.147613162638
22	31	30	12.235862109773
22	32	31	12.230306803957
22	33	32	12.179537976573
22	34	33	9.6819721059395
22	35	34	6.6021946457599
22	36	35	8.9097167729575
22	37	36	10.920897397116
22	38	37	12.971264368302
22	39	38	13.908169620545
22	40	39	13.943547738914
22	41	40	13.916770352069
22	42	41	13.968747933349
22	43	42	13.968386581719
22	44	43	13.909594985389
22	45	44	13.985489140681
22	46	45	13.884867181559
22	47	46	13.973042983357
22	48	47	13.895232723376
22	49	48	13.979062234708
22	50	49	13.946557367344
22	51	50	13.885171144758
22	52	51	13.966169866193
22	53	52	13.949480655019
22	54	53	13.885300111189
22	55	54	13.993522111119
22	56	55	13.966571741658
22	57	56	13.926510586946
22	58	57	13.908098938749
22	59	58	13.91633811252
22	60	59	13.880533665817
22	61	60	13.972980801386
22	62	61	13.902911598298
22	63	62	13.901326999525
22	64	63	13.905433383591
22	65	64	13.973261172024
22	66	65	13.976665152721
22	67	66	13.998651232829
22	68	67	13.965553381492
22	69	68	13.971034862546
22	70	69	13.886523545813
22	71	70	13.934083304845
22	72	71	13.960061270746
22	73	72	13.931489500275
22	74	73	13.935840668064
22	76	74	13.946968317453
22	77	75	13.988123250885
22	78	76	13.870423486442
22	79	77	13.913839612387
22	80	78	13.92923116046
22	81	79	13.892308738509
22	82	80	13.915719505185
22	83	81	13.92995415759
22	84	82	13.924761009167
22	85	83	12.235959058725
22	86	84	9.3518339640981
22	119	85	6.6193229537882
22	120	86	4.2063222659057
22	253	87	2.3714712194501
22	254	88	1.1280692738253
22	255	89	0.46036826262392
22	256	90	0.17141781502098
22	257	91	0.064398020312864
22	258	92	0.023579283439693
22	259	93	0.0088205079577178
22	260	94	0.003172179101576
22	261	95	0.0011978632218942
22	262	96	0.00042622994706932
22	263	97	0.00015378612615874
22	264	98	5.4606531926241e-05
22	265	99	2.0041392650847e-05
22	266	100	0
22	267	101	0
22	268	102	0
22	269	103	0
22	270	104	0
22	271	105	0
22	272	106	0
22	273	107	0
22	274	108	0
22	275	109	0
22	276	110	0
22	277	111	0
22	278	112	0
22	279	113	0
22	280	114	0
22	281	115	0
22	282	116	0
22	283	117	0
22	284	118	0
22	285	119	0
22	286	120	0
22	287	121	0
22	288	122	0
22	289	123	0
22	291	124	0.0052516392938606
22	292	125	0.22856617132886
22	293	126	1.2525406017225
22	294	127	2.6265760785381
22	295	128	4.5947864740751
22	296	129	6.2631489551711
22	297	130	7.1969216688188
22	298	131	9.1389989813232
22	299	132	10.981824899577
22	300	133	12.92874935441
22	301	134	13.87884193972
22	302	135	13.899553326101
22	303	136	13.912176871002
22	304	137	13.890769865487
22	305	138	13.979223951793
22	306	139	13.96321203382
22	307	140	13.907268285605
22	308	141	13.981442767675
22	309	142	13.875372803737
22	310	143	13.923756930374
22	311	144	13.918361302156
22	312	145	13.930307038482
22	313	146	13.951634765307
22	314	147	13.942240803519
22	315	148	13.971722894192
22	316	149	13.882031322985
22	317	150	13.880495084974
22	318	151	13.902722044264
22	319	152	13.981789327492
22	320	153	13.986122442426
22	321	154	13.966370860739
22	322	155	13.890911746176
22	323	156	13.871218099226
22	324	157	13.879474686743
22	325	158	13.990910371921
22	326	159	13.965231203535
22	327	160	13.917614203901
22	328	161	13.926139896312
22	329	162	13.906932247514
22	330	163	13.916076571352
22	331	164	13.87534674827
22	332	165	13.90109853745
22	333	166	13.927740463233
22	334	167	13.994092458878
22	335	168	13.998967196981
22	336	169	13.999391850769
22	337	170	13.884853873302
22	338	171	13.95662487434
22	339	172	13.973725439399
22	340	173	13.987700316531
22	341	174	13.967187714498
22	342	175	13.892708945875
22	343	176	13.918288855918
22	344	177	13.889886869525
22	345	178	13.934847458019
22	346	179	13.973202145975
22	347	180	13.978914842098
22	348	181	13.96974269039
22	349	182	13.87493168453
22	350	183	13.870253755485
22	351	184	13.90776881929
22	352	185	13.97258714041
22	353	186	13.891468408417
22	354	187	13.969672140321
22	355	188	13.905301484345
22	356	189	13.99773173498
22	357	190	13.87096818605
22	358	191	13.923068917706
22	359	192	13.910504624471
22	360	193	13.975123416288
22	361	194	13.950708097729
22	362	195	13.893633380462
22	363	196	13.9449971448
22	364	197	13.891399186871
22	365	198	13.995905531228
22	366	199	13.929096188832
22	367	200	13.910271175413
23	16	15	1.9779607486865
23	17	16	2.000282830745
23	18	17	1.8213626571791
23	19	18	1.9336497761379
23	20	19	0.29011094731887
23	21	20	0.088858120543881
23	22	21	-0.019816764153074
23	23	22	0.012303565731273
23	24	23	-0.077725891426672
23	25	24	0.10872397997184
23	26	25	-0.094247452416457
23	27	26	-0.017984651878942
23	28	27	0.054240274266339
23	29	28	-0.021861193862279
23	30	29	-0.028487854907288
23	31	30	0.088248947134707
23	32	31	-0.0055553058162339
23	33	32	-0.050768827383871
23	34	33	-2.4975658706336
23	35	34	-3.0797774601796
23	36	35	2.3075221271976
23	37	36	2.0111806241586
23	38	37	2.0503669711854
23	39	38	0.93690525224314
23	40	39	0.035378118369263
23	41	40	-0.026777386844623
23	42	41	0.051977581279353
23	43	42	-0.00036135162925355
23	44	43	-0.058791596330703
23	45	44	0.075894155292772
23	46	45	-0.10062195912236
23	47	46	0.088175801797771
23	48	47	-0.077810259980616
23	49	48	0.08382951133186
23	50	49	-0.032504867364187
23	51	50	-0.06138622258557
23	52	51	0.080998721434735
23	53	52	-0.016689211174381
23	54	53	-0.064180543830153
23	55	54	0.10822199993068
23	56	55	-0.026950369460973
23	57	56	-0.040061154712458
23	58	57	-0.018411648196635
23	59	58	0.0082391737704164
23	60	59	-0.035804446702823
23	61	60	0.092447135569527
23	62	61	-0.070069203088059
23	63	62	-0.0015845987736256
23	64	63	0.0041063840664002
23	65	64	0.067827788433059
23	66	65	0.0034039806970405
23	67	66	0.021986080107744
23	68	67	-0.033097851336933
23	69	68	0.0054814810538666
23	70	69	-0.08451131673297
23	71	70	0.047559759032447
23	72	71	0.025977965900674
23	73	72	-0.02857177047059
23	74	73	0.0043511677882631
23	76	74	0.011127649389673
23	77	75	0.041154933432118
23	78	76	-0.1176997644431
23	79	77	0.043416125944349
23	80	78	0.015391548073385
23	81	79	-0.036922421951312
23	82	80	0.023410766676534
23	83	81	0.014234652405138
23	84	82	-0.0051931484229861
23	85	83	-1.6888019504424
23	86	84	-2.8841250946269
23	119	85	-2.7325110103098
23	120	86	-2.4130006878826
23	253	87	-1.8348510464555
23	254	88	-1.2434019456249
23	255	89	-0.66770101120136
23	256	90	-0.28895044760294
23	257	91	-0.10701979470811
23	258	92	-0.040818736873171
23	259	93	-0.014758775481975
23	260	94	-0.0056483288561418
23	261	95	-0.0019743158796818
23	262	96	-0.00077163327482491
23	263	97	-0.00027244382091059
23	264	98	-9.9179594232494e-05
23	265	99	-3.4565139275395e-05
23	266	100	-2.0041392650847e-05
23	267	101	0
23	268	102	0
23	269	103	0
23	270	104	0
23	271	105	0
23	272	106	0
23	273	107	0
23	274	108	0
23	275	109	0
23	276	110	0
23	277	111	0
23	278	112	0
23	279	113	0
23	280	114	0
23	281	115	0
23	282	116	0
23	283	117	0
23	284	118	0
23	285	119	0
23	286	120	0
23	287	121	0
23	288	122	0
23	289	123	0
23	291	124	0.0052516392938606
23	292	125	0.223314532035
23	293	126	1.0239744303937
23	294	127	1.3740354768155
23	295	128	1.968210395537
23	296	129	1.668362481096
23	297	130	0.93377271364767
23	298	131	1.9420773125044
23	299	132	1.8428259182535
23	300	133	1.9469244548329
23	301	134	0.95009258531023
23	302	135	0.020711386380718
23	303	136	0.012623544901144
23	304	137	-0.021407005514485
23	305	138	0.088454086305575
23	306	139	-0.016011917972937
23	307	140	-0.055943748215213
23	308	141	0.074174482070374
23	309	142	-0.10606996393762
23	310	143	0.048384126636666
23	311	144	-0.0053956282185403
23	312	145	0.011945736326743
23	313	146	0.021327726824676
23	314	147	-0.009393961788156
23	315	148	0.02948209067341
23	316	149	-0.089691571206787
23	317	150	-0.0015362380119033
23	318	151	0.022226959289982
23	319	152	0.079067283228506
23	320	153	0.0043331149336883
23	321	154	-0.019751581687014
23	322	155	-0.075459114562255
23	323	156	-0.019693646950181
23	324	157	0.0082565875165166
23	325	158	0.11143568517873
23	326	159	-0.02567916838685
23	327	160	-0.047616999633611
23	328	161	0.0085256924107675
23	329	162	-0.019207648797892
23	330	163	0.0091443238384077
23	331	164	-0.040729823082218
23	332	165	0.02575178917963
23	333	166	0.026641925782897
23	334	167	0.066351995645091
23	335	168	0.0048747381032435
23	336	169	0.00042465378763268
23	337	170	-0.11453797746683
23	338	171	0.071771001038142
23	339	172	0.017100565058644
23	340	173	0.013974877132569
23	341	174	-0.020512602033559
23	342	175	-0.074478768622503
23	343	176	0.025579910043161
23	344	177	-0.028401986393146
23	345	178	0.044960588493851
23	346	179	0.038354687956161
23	347	180	0.0057126961229361
23	348	181	-0.009172151708043
23	349	182	-0.094811005860102
23	350	183	-0.0046779290447017
23	351	184	0.03751506380504
23	352	185	0.064818321119528
23	353	186	-0.081118731992319
23	354	187	0.07820373190334
23	355	188	-0.064370655976235
23	356	189	0.09243025063537
23	357	190	-0.12676354893017
23	358	191	0.052100731655955
23	359	192	-0.012564293234609
23	360	193	0.064618791816756
23	361	194	-0.024415318558457
23	362	195	-0.057074717266952
23	363	196	0.051363764337731
23	364	197	-0.053597957929597
23	365	198	0.1045063443575
23	366	199	-0.066809342396445
23	367	200	-0.018825013418683
24	16	15	4.3320714987557
24	17	16	5.4537605329601
24	18	17	6.0330113971974
24	19	18	7.359512948267
24	20	19	2.7102802198069
24	21	20	2.1311391712117
24	22	21	1.8090811198828
24	23	22	1.9047583376981
24	24	23	1.6340198934473
24	25	24	2.1924282590151
24	26	25	1.5866155405293
24	27	26	1.808613880672
24	28	27	2.0255422754474
24	29	28	1.7999868686407
24	30	29	1.7781948981983
24	31	30	2.1297198916615
24	32	31	1.8526149529095
24	33	32	1.7154241454235
24	34	33	0.973
24	35	34	0.973
24	36	35	6.5599503520389
24	37	36	7.0504460550578
24	38	37	8.3469476410468
24	39	38	5.1698458391138
24	40	39	2.151954771982
24	41	40	1.940528745875
24	42	41	2.2106271366951
24	43	42	2.0343928404431
24	44	43	1.8325255433806
24	45	44	2.2931617165723
24	46	45	1.6903845229658
24	47	46	2.3330180943258
24	48	47	1.7675781302578
24	49	48	2.3191197624919
24	50	49	1.9241249324384
24	51	50	1.8217036308443
24	52	51	2.3080118048219
24	53	52	1.9775701300285
24	54	53	1.8123640377939
24	55	54	2.4031555198124
24	56	55	1.9447101887125
24	57	56	1.8968747646758
24	58	57	1.9677419661877
24	59	58	2.0579273379489
24	60	59	1.9068771989553
24	61	60	2.3473940754528
24	62	61	1.7941528760312
24	63	62	2.0234567973163
24	64	63	2.0429449821818
24	65	64	2.2645219893428
24	66	65	2.0479224526271
24	67	66	2.1128832135052
24	68	67	1.923922059384
24	69	68	2.0543365234991
24	70	69	1.7444294842255
24	71	70	2.1918152388739
24	72	71	2.1221573752423
24	73	72	1.9359100705535
24	74	73	2.0468970513967
24	76	74	2.070822150522
24	77	75	2.1763690767147
24	78	76	1.6321798963518
24	79	77	2.1756243743688
24	80	78	2.0832776554012
24	81	79	1.9042298616127
24	82	80	2.1087438630295
24	83	81	2.0794702565761
24	84	82	2.0137256344662
24	85	83	0.973
24	86	84	0.973
24	119	85	0.973
24	120	86	0.973
24	253	87	0.973
24	254	88	0.973
24	255	89	0.973
24	256	90	0.973
24	257	91	0.973
24	258	92	1.1109055089917
24	259	93	1.1103941280122
24	260	94	1.1101487078027
24	261	95	1.1100572149665
24	262	96	1.1100204820694
24	263	97	1.1100074085453
24	264	98	1.1100026329139
24	265	99	1.1100009666298
24	266	100	0.973
24	267	101	0.973
24	268	102	0.973
24	269	103	0.973
24	270	104	0.973
24	271	105	0.973
24	272	106	0.973
24	273	107	0.973
24	274	108	0.973
24	275	109	0.973
24	276	110	0.973
24	277	111	0.973
24	278	112	0.973
24	279	113	0.973
24	280	114	0.973
24	281	115	0.973
24	282	116	0.973
24	283	117	0.973
24	284	118	0.973
24	285	119	0.973
24	286	120	0.973
24	287	121	0.973
24	288	122	0.973
24	289	123	0.973
24	291	124	1.1102599858043
24	292	125	1.1333282927579
24	293	126	1.4797033498669
24	294	127	2.10815108085
24	295	128	3.5200988189482
24	296	129	3.9530882467741
24	297	130	3.1112051942173
24	298	131	5.8988010732688
24	299	132	6.6393706182417
24	300	133	7.999603310579
24	301	134	5.2043491552391
24	302	135	2.0979638548267
24	303	136	2.0721951348876
24	304	137	1.9560276002454
24	305	138	2.3347197495881
24	306	139	1.9811977128556
24	307	140	1.841866529066
24	308	141	2.2868787476137
24	309	142	1.6714318864946
24	310	143	2.1934097686966
24	311	144	2.0124019992064
24	312	145	2.0718231091353
24	313	146	2.1056075864738
24	314	147	2.0013723965438
24	315	148	2.1352223413714
24	316	149	1.7267333771104
24	317	150	2.0215075989347
24	318	151	2.1033802407914
24	319	152	2.3034072737989
24	320	153	2.0520305660189
24	321	154	1.968921310033
24	322	155	1.7750905282376
24	323	156	1.9598689379399
24	324	157	2.0541608171831
24	325	158	2.4136556367749
24	326	159	1.9488601465504
24	327	160	1.8707102204656
24	328	161	2.0599076998528
24	329	162	1.9649604708627
24	330	163	2.0609358340029
24	331	164	1.8899246291571
24	332	165	2.1150150315316
24	333	166	2.1208829210491
24	334	167	2.2620190787025
24	335	168	2.0551878808505
24	336	169	2.0402179967514
24	337	170	1.6438170192806
24	338	171	2.2758115449642
24	339	172	2.0937446594721
24	340	173	2.0846966037443
24	341	174	1.9664393222214
24	342	175	1.7785229988864
24	343	176	2.1162961930426
24	344	177	1.9325269073976
24	345	178	2.1831731906117
24	346	179	2.1652630876925
24	347	180	2.0559325102216
24	348	181	2.0048680870105
24	349	182	1.7090467106384
24	350	183	2.009969083853
24	351	184	2.1551634127177
24	352	185	2.2543079242331
24	353	186	1.7561895117741
24	354	187	2.2990286237297
24	355	188	1.8134526940956
24	356	189	2.3504241746591
24	357	190	1.6019204099396
24	358	191	2.2058025101274
24	359	192	1.9875791858511
24	360	193	2.2539351315952
24	361	194	1.951714498477
24	362	195	1.8368755789702
24	363	196	2.205838822334
24	364	197	1.8483186199243
24	365	198	2.3909290704843
24	366	199	1.8073222156708
24	367	200	1.9665678282588

